Mass spectrum: Strychnine_N_Oxide; LC-ESI-QTOF; MS2; CE:20 eV; [M+H]+
Name: Strychnine_N_Oxide
Formula: C21H22N2O3
Exact mass: 350.16304
SMILES: [H]c(c([H])7)c([H])c(N61)c(c([H])7)C(C([H])([H])4)(C([H])23)C([H])1C([H])(C([H])5C([H])([H])C(=O)6)C([H])(C(=C([H])C([H])([H])O5)C([H])([H])N(O)(C([H])([H])4)3)C([H])([H])2
InChI: InChI=1S/C21H22N2O3/c24-18-10-16-19-13-9-17-21(6-7-23(17,25)11-12(13)5-8-26-16)14-3-1-2-4-15(14)22(18)20(19)21/h1-5,13,16-17,19-20H,6-11H2/t13-,16-,17-,19-,20-,21+,23?/m0/s1
Instrument: Micromass Q-TOF II
Instrument type: LC-ESI-QTOF
Ms type: MS2
Ion mode: POSITIVE
Collision energy: 20 eV
Ionization: ESI
Precursor m/z: 351.17098
Precursor type: [M+H]+
m/z	relative intensity
334.1676	73
351.1682	999
