Mass spectrum: Nor-LSD; LC-ESI-Q; MS; POS; 45 V
Name: Nor-LSD
Formula: C19H23N3O
Exact mass: 309.18411
SMILES: CCN(CC)C(=O)C(C4)C=C(c31)C([H])(N4)Cc(c2)c(c(ccc3)n2)1
InChI: InChI=1S/C19H23N3O/c1-3-22(4-2)19(23)13-8-15-14-6-5-7-16-18(14)12(10-20-16)9-17(15)21-11-13/h5-8,10,13,17,20-21H,3-4,9,11H2,1-2H3/t13-,17-/m1/s1
Instrument: ZQ, Waters
Instrument type: LC-ESI-Q
Retention time: 12.600 min
Ms type: MS
Ion mode: POSITIVE
Column name: 2.1 mm id - 3. 5{mu}m XTerra C18MS
Ionization: ESI
m/z	relative intensity
100	16
128	71
168	8
180	8
183	172
184	16
192	31
194	8
195	8
207	8
208	12
209	862
210	110
211	8
212	8
213	16
237	349
238	51
281	43
282	8
293	8
310	999
311	204
312	24
313	8
314	20
332	12
619	12
