Mass spectrum: Losartan; LC-ESI-Q; MS; POS; 45 V, 60 V
Name: Losartan
Formula: C22H23ClN6O
Exact mass: 422.16219
SMILES: CCCCc(n1)n(Cc(c4)ccc(c4)c(c3)c(ccc3)c(n2)nnn2)c(CO)c(Cl)1
InChI: InChI=1S/C22H23ClN6O/c1-2-3-8-20-24-21(23)19(14-30)29(20)13-15-9-11-16(12-10-15)17-6-4-5-7-18(17)22-25-27-28-26-22/h4-7,9-12,30H,2-3,8,13-14H2,1H3,(H,25,26,27,28)
Instrument: ZQ, Waters
Instrument type: LC-ESI-Q
Retention time: 15.680 min
Ms type: MS
Ion mode: POSITIVE
Column name: 2.1 mm id - 3. 5{mu}m XTerra C18MS
Ionization: ESI
m/z	relative intensity
115	8
171	98
173	27
178	8
180	24
189	12
190	12
192	94
193	16
195	31
206	12
207	999
208	137
209	12
212	12
233	16
235	98
236	12
258	27
259	8
282	8
294	12
324	16
341	63
342	20
362	20
365	20
377	141
378	27
379	47
380	16
405	78
406	20
407	27
408	8
423	63
424	16
425	24
445	20
461	16
463	8
