Mass spectrum: Zolmitriptan; LC-ESI-Q; MS; POS; 30 V
Name: Zolmitriptan
Formula: C16H21N3O2
Exact mass: 287.16338
SMILES: CN(C)CCc(c1)c(c2)c(ccc(CC([H])(C3)NC(=O)O3)2)n1
InChI: InChI=1S/C16H21N3O2/c1-19(2)6-5-12-9-17-15-4-3-11(8-14(12)15)7-13-10-21-16(20)18-13/h3-4,8-9,13,17H,5-7,10H2,1-2H3,(H,18,20)/t13-/m1/s1
Instrument: ZQ, Waters
Instrument type: LC-ESI-Q
Retention time: 10.730 min
Ms type: MS
Ion mode: POSITIVE
Column name: 2.1 mm id - 3. 5{mu}m XTerra C18MS
Ionization: ESI
m/z	relative intensity
182	12
243	141
244	24
288	999
289	192
290	20
304	12
320	55
321	12
326	12
