Mass spectrum: Yohimbine; LC-ESI-Q; MS; POS; 45 V
Name: Yohimbine
Formula: C21H26N2O3
Exact mass: 354.19434
SMILES: COC(=O)C(C(O)5)C([H])(C1)C([H])(CC5)CN(C4)C([H])1c(n2)c(C4)c(c3)c(ccc3)2
InChI: InChI=1S/C21H26N2O3/c1-26-21(25)19-15-10-17-20-14(13-4-2-3-5-16(13)22-20)8-9-23(17)11-12(15)6-7-18(19)24/h2-5,12,15,17-19,22,24H,6-11H2,1H3/t12-,15-,17-,18-,19+/m0/s1
Instrument: ZQ, Waters
Instrument type: LC-ESI-Q
Retention time: 12.860 min
Ms type: MS
Ion mode: POSITIVE
Column name: 2.1 mm id - 3. 5{mu}m XTerra C18MS
Ionization: ESI
m/z	relative intensity
144	999
145	106
146	12
158	20
162	12
180	16
194	20
212	482
213	63
224	188
225	43
226	12
294	20
326	20
338	12
351	16
353	35
354	12
355	815
356	192
357	27
369	12
371	20
387	20
