Mass spectrum: Theophylline; LC-ESI-Q; MS; NEG; 30 V
Name: Theophylline
Formula: C7H8N4O2
Exact mass: 180.06473
SMILES: CN(C(=O)1)C(=O)c(n2)c(nc2)N(C)1
InChI: InChI=1S/C7H8N4O2/c1-10-5-4(8-3-9-5)6(12)11(2)7(10)13/h3H,1-2H3,(H,8,9)
Instrument: ZQ, Waters
Instrument type: LC-ESI-Q
Retention time: 10.050 min
Ms type: MS
Ion mode: NEGATIVE
Column name: 2.1 mm id - 3. 5{mu}m XTerra C18MS
Ionization: ESI
m/z	relative intensity
122	8
164	12
179	999
180	90
