Mass spectrum: Irbesartan; LC-ESI-Q; MS; POS; 45 V
Name: Irbesartan
Formula: C25H28N6O
Exact mass: 428.23246
SMILES: CCCCC(=N1)N(Cc(c5)ccc(c5)c(c4)c(ccc4)c(n3)nnn3)C(=O)C(C2)(CCC2)1
InChI: InChI=1S/C25H28N6O/c1-2-3-10-22-26-25(15-6-7-16-25)24(32)31(22)17-18-11-13-19(14-12-18)20-8-4-5-9-21(20)23-27-29-30-28-23/h4-5,8-9,11-14H,2-3,6-7,10,15-17H2,1H3,(H,27,28,29,30)
Instrument: ZQ, Waters
Instrument type: LC-ESI-Q
Retention time: 16.000 min
Ms type: MS
Ion mode: POSITIVE
Column name: 2.1 mm id - 3. 5{mu}m XTerra C18MS
Ionization: ESI
m/z	relative intensity
167	16
195	419
196	47
207	999
208	247
209	20
240	43
386	74
387	20
401	59
402	12
429	451
430	121
431	12
