Mass spectrum: Thiabendazole; LC-ESI-QQ; MS2; CE:20 V; [M+H]+
Name: Thiabendazole
Formula: C10H7N3S
Exact mass: 201.03607
SMILES: c(c3)cc(n1)c(c3)nc1c(n2)csc2
InChI: InChI=1S/C10H7N3S/c1-2-4-8-7(3-1)12-10(13-8)9-5-14-6-11-9/h1-6H,(H,12,13)
Instrument: QuattroPremier XE, Waters
Instrument type: LC-ESI-QQ
Ms type: MS2
Ion mode: POSITIVE
Collision energy: 20 V
Precursor type: [M+H]+
Precursor m/z: 201.92
m/z	relative intensity
175	31
202	999
203	12
