Mass spectrum: Reserpine; LC-ESI-Q; MS; POS; 15 V
Name: Reserpine
Formula: C33H40N2O9
Exact mass: 608.27338
SMILES: n(c65)c(c1c5ccc(OC)c6)C(C2)([H])N(CC(C3)([H])C(C(C(C3OC(c(c4)cc(OC)c(c4OC)OC)=O)OC)C(OC)=O)([H])2)CC1
InChI: InChI=1S/C33H40N2O9/c1-38-19-7-8-20-21-9-10-35-16-18-13-27(44-32(36)17-11-25(39-2)30(41-4)26(12-17)40-3)31(42-5)28(33(37)43-6)22(18)15-24(35)29(21)34-23(20)14-19/h7-8,11-12,14,18,22,24,27-28,31,34H,9-10,13,15-16H2,1-6H3/t18-,22+,24-,27-,28+,31+/m1/s1
Instrument: ZQ, Waters
Instrument type: LC-ESI-Q
Ms type: MS
Ion mode: POSITIVE
Ionization: ESI
Retention time: 17.030 min
Column name: 2.1 mm id - 3. 5{mu}m XTerra C18MS
m/z	relative intensity
122	16
209	12
242	31
272	43
387	196
388	39
404	74
405	12
409	27
425	47
607	20
609	999
610	360
611	71
623	27
641	47
