Mass spectrum: Ioxynil; LC-ESI-Q; MS; NEG; 60 V
Name: Ioxynil
Formula: C7H3I2NO
Exact mass: 370.83040
SMILES: N#Cc(c1)cc(I)c(O)c(I)1
InChI: InChI=1S/C7H3I2NO/c8-5-1-4(3-10)2-6(9)7(5)11/h1-2,11H
Instrument: ZQ, Waters
Instrument type: LC-ESI-Q
Retention time: 17.310 min
Ms type: MS
Ion mode: NEGATIVE
Column name: 2.1 mm id - 3. 5{mu}m XTerra C18MS
Ionization: ESI
m/z	relative intensity
104	31
118	12
127	999
132	16
215	39
243	20
260	20
370	251
371	20
