Mass spectrum: Niacinamide; LC-ESI-Q; MS; POS; 15 V
Name: Nicotinamide
Name: Niacinamide
Formula: C6H6N2O
Exact mass: 122.04801
SMILES: NC(=O)c(c1)cncc1
InChI: InChI=1S/C6H6N2O/c7-6(9)5-2-1-3-8-4-5/h1-4H,(H2,7,9)
Instrument: ZQ, Waters
Instrument type: LC-ESI-Q
Retention time: 3.120 min
Ms type: MS
Ion mode: POSITIVE
Column name: 2.1 mm id - 3. 5{mu}m XTerra C18MS
Ionization: ESI
m/z	relative intensity
123	999
124	55
