Mass spectrum: 3-Hydroxystanozolol; LC-ESI-Q; MS; POS; 15 V, 60 V
Name: 3-Hydroxystanozolol
Formula: C21H32N2O2
Exact mass: 344.24638
SMILES: Oc(n5)c(c(n5)4)CC(C)(C([H])(C4)3)C([H])(C2)C([H])(CC3)C([H])(C1)C(C)(C2)C(C)(O)C1
InChI: InChI=1S/C21H32N2O2/c1-19-11-14-17(22-23-18(14)24)10-12(19)4-5-13-15(19)6-8-20(2)16(13)7-9-21(20,3)25/h12-13,15-16,25H,4-11H2,1-3H3,(H2,22,23,24)/t12-,13+,15-,16-,19-,20-,21-/m0/s1
Instrument: ZQ, Waters
Instrument type: LC-ESI-Q
Retention time: 14.480 min
Ms type: MS
Ion mode: POSITIVE
Column name: 2.1 mm id - 3. 5{mu}m XTerra C18MS
Ionization: ESI
m/z	relative intensity
345	999
346	192
347	20
386	24
