Mass spectrum: Tripelennamine; LC-ESI-Q; MS; POS; 60 V
Name: Tripelennamine
Formula: C16H21N3
Exact mass: 255.17355
SMILES: CN(C)CCN(Cc(c2)cccc2)c(c1)nccc1
InChI: InChI=1S/C16H21N3/c1-18(2)12-13-19(16-10-6-7-11-17-16)14-15-8-4-3-5-9-15/h3-11H,12-14H2,1-2H3
Instrument: ZQ, Waters
Instrument type: LC-ESI-Q
Retention time: 12.910 min
Ms type: MS
Ion mode: POSITIVE
Column name: 2.1 mm id - 3. 5{mu}m XTerra C18MS
Ionization: ESI
m/z	relative intensity
119	999
120	533
121	59
211	427
212	71
