Mass spectrum: CASMI2012 LC Challenge 15; LC-APCI-ITFT; MS2; CE:90 HCD;
Name: CASMI2012 LC Challenge 15
Instrument: LTQ-Orbitrap
Instrument type: LC-APCI-ITFT
Ms type: MS2
Ion mode: POSITIVE
Collision energy: 90 HCD
Ionization: APCI
Resolution: 30000
Retention time: 13.08 min
Precursor m/z: N/A
Precursor type: N/A
m/z	relative intensity
53.0377	12
65.0377	10
77.0378	19
79.0535	165
89.0378	67
91.0535	160
95.0484	16
105.0440	11
106.0643	397
107.0484	21
109.0640	15
116.0487	349
119.0358	13
119.0596	32
132.0436	14
134.0593	160
144.0436	220
144.0548	65
147.0671	15
162.0542	999
