Mass spectrum: CASMI2012 LC Challenge 17; LC-APCI-ITFT; MS2; CE:35 CID;
Name: CASMI2012 LC Challenge 17
Instrument: LTQ-Orbitrap
Instrument type: LC-APCI-ITFT
Ms type: MS2
Ion mode: POSITIVE
Collision energy: 35 CID
Ionization: APCI
Resolution: Low (ion trap)
Retention time: 9.06 min
Precursor m/z: N/A
Precursor type: N/A
m/z	relative intensity
94.1667	282
106.1667	184
119.1667	162
120.1667	79
168.0833	115
185.1667	506
195.1667	999
