Mass spectrum: CASMI2012 LC Challenge 1; LC-ESI-QTOF; MS2; CE:20 eV;
Name: CASMI2012 LC Challenge 1
Instrument: Bruker micrOTOF-Q
Instrument type: LC-ESI-QTOF
Ms type: MS2
Ion mode: POSITIVE
Collision energy: 20 eV
Ionization: ESI
Resolution: 12000
Column name: Waters Acquity
Retention time: 22 sec
Precursor m/z: N/A
Precursor type: N/A
m/z	relative intensity
97.026459	30
102.053661	55
114.055068	22
115.039348	132
120.065158	21
126.055163	50
144.065170	258
145.094088	78
146.081499	25
162.075920	314
163.107469	999
187.107758	81
205.118756	256
206.121227	28
241.118166	13
288.156619	17
324.177987	31
