Mass spectrum: CASMI2012 LC Challenge 16; APCI-ITFT; MS2; CE:75 CID;
Name: CASMI2012 LC Challenge 16
Exact mass: 359.1481
Instrument: LTQ-Orbitrap
Instrument type: APCI-ITFT
Ms type: MS2
Ion mode: POSITIVE
Collision energy: 75 CID
Ionization: APCI
Resolution: 60000
Retention time: 1.24 min
Precursor m/z: 155.05
Precursor type: N/A
m/z	relative intensity
67.0285	249
68.0125	33
95.0236	136
113.0342	972
123.0186	407
141.0292	999
155.0449	244
