Mass spectrum: CASMI2012 LC Challenge 10; LC-APCI-ITFT; MS2; CE:35;
Name: CASMI2012 LC Challenge 10
Instrument: LTQ-Orbitrap
Instrument type: LC-APCI-ITFT
Ms type: MS2
Ion mode: POSITIVE
Collision energy: 35
Ionization: APCI
Resolution: 15000
Retention time: 27.02 min
Precursor m/z: N/A
Precursor type: N/A
m/z	relative intensity
105.0338	56
130.0292	9
146.0243	138
168.0817	6
178.0662	17
196.0769	21
206.0614	71
224.0719	999
225.0754	259
