Mass spectrum: CASMI2012 LC Challenge 11; LC-APCI-ITFT; MS2 215; CE:35;
Name: CASMI2012 LC Challenge 11
Instrument: LTQ-Orbitrap
Instrument type: LC-APCI-ITFT
Ms type: MS2 215
Ion mode: POSITIVE
Collision energy: 35
Ionization: APCI
Resolution: 15000
Retention time: 29.79 min
Precursor m/z: 215.0849
Precursor type: N/A
m/z	relative intensity
215.0858	999
216.0892	575
