Mass spectrum: CASMI2012 LC Challenge 3; LC-ESI-QTOF; MS2; CE:40 eV;
Name: CASMI2012 LC Challenge 3
Exact mass: 449.078
Instrument: Bruker micrOTOF-Q
Instrument type: LC-ESI-QTOF
Ms type: MS2
Ion mode: NEGATIVE
Collision energy: 40 eV
Ionization: ESI
Resolution: 12000
Column name: Waters Acquity
Retention time: 244 sec (MSMS)
Precursor m/z: 448.0764
Precursor type: N/A
m/z	relative intensity
95.949111	999
96.957434	832
