Mass spectrum: CASMI2012 LC Challenge 13; APCI-ITFT; MS2; CE:45 HCD;
Name: CASMI2012 LC Challenge 13
Instrument: LTQ-Orbitrap
Instrument type: APCI-ITFT
Ms type: MS2
Ion mode: POSITIVE
Collision energy: 45 HCD
Ionization: APCI
Resolution: 15000
Retention time: 0.58-0.89 min
Precursor m/z: N/A
Precursor type: N/A
m/z	relative intensity
91.0541	388
125.0151	10
185.0518	9
201.0468	50
219.0574	53
233.0732	9
293.1097	999
294.1130	8
