Mass spectrum: CASMI2012 LC Challenge 14; LC-APCI-ITFT; MS2; CE:120 HCD;
Name: CASMI2012 LC Challenge 14
Instrument: LTQ-Orbitrap
Instrument type: LC-APCI-ITFT
Ms type: MS2
Ion mode: POSITIVE
Collision energy: 120 HCD
Ionization: APCI
Resolution: 30000
Retention time: 22.62 min
Precursor m/z: N/A
Precursor type: N/A
m/z	relative intensity
91.0537	24
115.0537	712
116.0615	11
139.0539	82
140.0573	109
140.0616	153
141.0652	35
141.0693	904
153.0570	12
166.0648	113
167.0725	999
168.0760	32
168.0803	89
