Mass spectrum: CASMI2012 LC Challenge 12; LC-APCI-ITFT; MS2; CE:35;
Name: CASMI2012 LC Challenge 12
Instrument: LTQ-Orbitrap
Instrument type: LC-APCI-ITFT
Ms type: MS2
Ion mode: POSITIVE
Collision energy: 35
Ionization: APCI
Resolution: 15000
Retention time: 46.89 min
Precursor m/z: N/A
Precursor type: N/A
m/z	relative intensity
150.0670	365
153.0666	30
167.0699	7
176.0717	52
178.0621	313
220.0731	80
248.0683	999
266.0790	16
280.0947	28
295.1211	9
323.1161	106
