Mass spectrum: CASMI2012 LC Challenge 13; APCI-ITFT; MS2; CE:45 CID;
Name: CASMI2012 LC Challenge 13
Instrument: LTQ-Orbitrap
Instrument type: APCI-ITFT
Ms type: MS2
Ion mode: POSITIVE
Collision energy: 45 CID
Ionization: APCI
Resolution: 15000
Retention time: 0.58-0.89 min
Precursor m/z: N/A
Precursor type: N/A
m/z	relative intensity
91.0541	873
125.0152	52
167.0859	64
185.0519	50
201.0469	999
215.0626	147
219.0576	88
233.0733	90
