Mass spectrum: CASMI2012 LC Challenge 11; LC-APCI-ITFT; MS2 231; CE:35;
Name: CASMI2012 LC Challenge 11
Instrument: LTQ-Orbitrap
Instrument type: LC-APCI-ITFT
Ms type: MS2 231
Ion mode: POSITIVE
Collision energy: 35
Ionization: APCI
Resolution: 15000
Retention time: 29.79 min
Precursor m/z: 231.08
Precursor type: N/A
m/z	relative intensity
203.0856	999
216.0936	64
