Mass spectrum: CASMI2012 LC Challenge 3; LC-ESI-QTOF; MS2; CE:10 eV;
Name: CASMI2012 LC Challenge 3
Exact mass: 449.078
Instrument: Bruker micrOTOF-Q
Instrument type: LC-ESI-QTOF
Ms type: MS2
Ion mode: NEGATIVE
Collision energy: 10 eV
Ionization: ESI
Resolution: 12000
Column name: Waters Acquity
Retention time: 244 sec (MSMS)
Precursor m/z: 448.0764
Precursor type: N/A
m/z	relative intensity
96.958333	10
259.012932	4
274.989482	3
448.076411	999
449.079096	165
450.073551	147
451.076662	24
452.074030	10
