Mass spectrum: CASMI2012 Example 1; LC-ESI-QTOF; MS2; CE:15 eV; [M+H]+
Name: CASMI2012 Example 1
Exact mass: 353.1272
Instrument: Bruker micrOTOF-Q
Instrument type: LC-ESI-QTOF
Ms type: MS2
Ion mode: POSITIVE
Collision energy: 15 eV
Ionization: ESI
Resolution: 12000
Column name: Waters Acquity
Retention time: 319.5 sec
Precursor m/z: 354.1345
Precursor type: [M+H]+
m/z	relative intensity
135.044090	10
161.059417	5
163.037921	6
173.058985	2
176.069933	2
188.069476	1
217.064262	2
235.074687	1
237.088827	2
245.058738	2
247.074622	46
248.077730	7
249.084970	1
263.069442	2
265.084928	11
266.086344	2
267.066777	2
275.069243	489
276.072457	87
277.075843	10
278.078822	1
279.064367	2
293.079939	19
294.082997	3
295.095169	71
296.098408	12
297.100602	1
303.063770	15
304.067777	3
305.079460	394
306.083071	76
307.089209	14
308.094266	2
323.089931	368
324.093193	69
325.096267	10
326.099525	1
334.105573	10
335.108811	2
336.121034	81
337.124388	17
338.127519	2
352.116235	51
353.119072	12
354.132312	999
355.135060	208
356.137434	27
357.140093	3
