Mass spectrum: CASMI2012 LC Challenge 1; LC-ESI-QTOF; MS2; CE:10 eV;
Name: CASMI2012 LC Challenge 1
Instrument: Bruker micrOTOF-Q
Instrument type: LC-ESI-QTOF
Ms type: MS2
Ion mode: POSITIVE
Collision energy: 10 eV
Ionization: ESI
Resolution: 12000
Column name: Waters Acquity
Retention time: 22 sec
Precursor m/z: N/A
Precursor type: N/A
m/z	relative intensity
115.039358	48
126.054771	20
127.040288	13
144.065103	220
145.066736	20
162.076100	401
163.106634	397
164.109231	31
205.119124	140
206.121712	14
243.127800	144
243.629221	33
288.154897	9
306.163434	8
324.177677	999
325.180693	153
326.182655	28
348.178211	10
366.185665	13
