Mass spectrum: CASMI2012 LC Challenge 15; LC-APCI-ITFT; MS2; CE:120 HCD;
Name: CASMI2012 LC Challenge 15
Instrument: LTQ-Orbitrap
Instrument type: LC-APCI-ITFT
Ms type: MS2
Ion mode: POSITIVE
Collision energy: 120 HCD
Ionization: APCI
Resolution: 30000
Retention time: 13.08 min
Precursor m/z: N/A
Precursor type: N/A
m/z	relative intensity
53.0378	109
65.0378	113
77.0378	165
79.0535	666
89.0379	999
90.0331	58
91.0535	560
95.0485	210
104.0488	31
105.0440	141
106.0644	576
107.0484	40
116.0488	919
119.0359	50
119.0597	38
132.0437	38
134.0593	138
144.0437	118
144.0550	51
162.0544	253
