Mass spectrum: CASMI2012 LC Challenge 16; APCI-ITFT; MS2; CE:25 CID;
Name: CASMI2012 LC Challenge 16
Exact mass: 359.1481
Instrument: LTQ-Orbitrap
Instrument type: APCI-ITFT
Ms type: MS2
Ion mode: POSITIVE
Collision energy: 25 CID
Ionization: APCI
Resolution: 60000
Retention time: 1.24 min
Precursor m/z: 155.05
Precursor type: N/A
m/z	relative intensity
123.0186	999
141.0292	356
155.0449	101
