Mass spectrum: CASMI2012 LC Challenge 16; APCI-ITFT; MS2; CE:75 HCD;
Name: CASMI2012 LC Challenge 16
Exact mass: 359.1481
Instrument: LTQ-Orbitrap
Instrument type: APCI-ITFT
Ms type: MS2
Ion mode: POSITIVE
Collision energy: 75 HCD
Ionization: APCI
Resolution: 60000
Retention time: 1.55 min
Precursor m/z: 170.10
Precursor type: N/A
m/z	relative intensity
88.3477	490
93.0569	999
170.0962	596
