Mass spectrum: CASMI2012 LC Challenge 3; LC-ESI-QTOF; MS2; CE:20 eV;
Name: CASMI2012 LC Challenge 3
Exact mass: 449.078
Instrument: Bruker micrOTOF-Q
Instrument type: LC-ESI-QTOF
Ms type: MS2
Ion mode: NEGATIVE
Collision energy: 20 eV
Ionization: ESI
Resolution: 12000
Column name: Waters Acquity
Retention time: 244 sec (MSMS)
Precursor m/z: 448.0764
Precursor type: N/A
m/z	relative intensity
95.949382	252
96.957279	700
98.953423	73
195.032009	54
206.066364	62
255.018354	102
259.011029	233
274.988822	202
448.075482	999
449.078316	220
450.073854	183
