Mass spectrum: CASMI2012 LC Challenge 1; LC-ESI-QTOF; MS2; CE:30 eV;
Name: CASMI2012 LC Challenge 1
Instrument: Bruker micrOTOF-Q
Instrument type: LC-ESI-QTOF
Ms type: MS2
Ion mode: POSITIVE
Collision energy: 30 eV
Ionization: ESI
Resolution: 12000
Column name: Waters Acquity
Retention time: 22 sec
Precursor m/z: N/A
Precursor type: N/A
m/z	relative intensity
97.025804	99
99.043454	41
102.052812	256
109.071788	39
110.061213	144
114.056032	45
115.039144	256
126.054761	84
128.069453	106
144.066077	253
145.096530	326
146.081469	97
162.075928	223
163.107333	999
187.106587	137
205.119978	104
