Mass spectrum: CASMI2012 LC Challenge 13; APCI-ITFT; MS2; CE:75 HCD;
Name: CASMI2012 LC Challenge 13
Instrument: LTQ-Orbitrap
Instrument type: APCI-ITFT
Ms type: MS2
Ion mode: POSITIVE
Collision energy: 75 HCD
Ionization: APCI
Resolution: 15000
Retention time: 0.58-0.89 min
Precursor m/z: N/A
Precursor type: N/A
m/z	relative intensity
91.0540	999
183.0361	21
201.0468	57
219.0574	54
293.1100	8
