Mass spectrum: Sulfasalazine; LC-ESI-QFT; MS2; CE: 15; R=17500; [M-H]-
Name: Sulfasalazine
Name: 2-hydroxy-5-[[4-(pyridin-2-ylsulfamoyl)phenyl]diazenyl]benzoic acid
Formula: C18H14N4O5S
Exact mass: 398.0685
SMILES: OC(=O)C1=CC(=CC=C1O)\N=N\C1=CC=C(C=C1)S(=O)(=O)NC1=NC=CC=C1
InChI: InChI=1S/C18H14N4O5S/c23-16-9-6-13(11-15(16)18(24)25)21-20-12-4-7-14(8-5-12)28(26,27)22-17-3-1-2-10-19-17/h1-11,23H,(H,19,22)(H,24,25)
Instrument: Q Exactive Orbitrap (Thermo Scientific)
Instrument type: LC-ESI-QFT
Ms type: MS2
Ion mode: NEGATIVE
Ionization: ESI
Fragmentation mode: HCD
Collision energy: 15
Resolution: 17500
Column name: Acquity BEH C18 1.7um, 2.1x150mm (Waters)
Retention time: 17.048 min
Base peak: 221.1182
Precursor m/z: 397.0612
Precursor type: [M-H]-
Precursor intensity: 5809553.572266
m/z	relative intensity	assigned
122.0246	1	C6H4NO2-
196.0656	4	C12H8N2O-
197.0719	53	C12H9N2O-
212.0596	1	C12H8N2O2-
240.0554	4	C13H8N2O3-
241.0618	12	C13H9N2O3-
289.1097	4	C17H13N4O-
333.0995	1	C18H13N4O3-
353.0713	11	C17H13N4O3S-
397.0609	999	C18H13N4O5S-
