Mass spectrum: C9DEA; LC-APCI-Q; MS; [M+H]+
Name: C9DEA
Name: C9-coconut fatty acid diethanolamide
Name: N,N-Bis(2-hydroxyethyl)decanamide
Formula: C14H29NO3
Exact mass: 259.2148
SMILES: O=C(CCCCCCCCC)N(CCO)CCO
InChI: InChI=1S/C14H29NO3/c1-2-3-4-5-6-7-8-9-14(18)15(10-12-16)11-13-17/h16-17H,2-13H2,1H3
Instrument: VG Platform
Instrument type: LC-APCI-Q
Ms type: MS
Ionization: APCI
Ion mode: POSITIVE
m/z	relative intensity
88	300
106	999
155	50
199	200
242	600
260	400
