Mass spectrum: C11DEA; LC-APCI-Q; MS; [M+H]+
Name: C11DEA
Name: C11-coconut fatty acid diethanolamide
Name: N,N-Bis(2-hydroxyethyl)dodecanamide
Formula: C16H33NO3
Exact mass: 287.2460
SMILES: O=C(CCCCCCCCCCC)N(CCO)CCO
InChI: InChI=1S/C16H33NO3/c1-2-3-4-5-6-7-8-9-10-11-16(20)17(12-14-18)13-15-19/h18-19H,2-15H2,1H3
Instrument: VG Platform
Instrument type: LC-APCI-Q
Ms type: MS
Ion mode: POSITIVE
Ionization: APCI
m/z	relative intensity
88	350
106	999
227	200
270	750
288	500
