Mass spectrum: 3a,6b,7b,12a-Tetrahydroxy-5b-cholan-24-oic acid; LC-ESI-TOF; MS; Orifice voltage  -60 V; Negative; In-suorce decay
Name: 3a,6b,7b,12a-Tetrahydroxy-5b-cholan-24-oic acid
Class: Natural Product; Bile acid
Formula: C24H40O6
Exact mass: 424.28249
SMILES: C[C@H](CCC(=O)O)[C@H]1CC[C@@H]2[C@@]1([C@H](C[C@H]3[C@H]2[C@H]([C@H]([C@H]4[C@@]3(CC[C@H](C4)O)C)O)O)O)C
InChI: InChI=1S/C24H40O6/c1-12(4-7-19(27)28)14-5-6-15-20-16(11-18(26)24(14,15)3)23(2)9-8-13(25)10-17(23)21(29)22(20)30/h12-18,20-22,25-26,29-30H,4-11H2,1-3H3,(H,27,28)/t12-,13-,14-,15+,16+,17+,18+,20+,21+,22-,23-,24-/m1/s1
Instrument: JMS-T100LP, JEOL
Instrument type: LC-ESI-TOF
Ms type: MS
Ion mode: NEGATIVE
Ionization: ESI
m/z	relative intensity
61.97355	108
68.98153	98
89.01174	23
98.94183	11
110.98378	6
112.97907	19
212.07496	18
213.07724	2
227.19749	14
241.21304	10
253.2093	23
255.22895	30
256.22978	5
281.24857	6
283.25585	11
423.25462	999
424.26362	300
425.27958	52
427.77752	2
459.23948	104
460.25019	31
461.23496	33
462.25329	6
469.29921	5
483.29348	3
486.26769	15
487.30029	5
491.26006	21
492.27548	5
847.52789	519
848.53245	285
849.54994	95
850.56162	32
861.57732	10
862.58632	8
863.58519	4
869.53742	37
870.54015	22
883.53533	37
884.54551	23
885.52031	22
888.85209	2
905.549	4
