Mass spectrum: 6a-Hydroxy-5a-cholan-24-oic acid; LC-ESI-TOF; MS; Orifice voltage  -120 V; Negative; In-suorce decay
Name: 6a-Hydroxy-5a-cholan-24-oic acid
Class: Natural Product; Bile acid
Formula: C24H40O3
Exact mass: 376.29775
SMILES: C[C@H](CCC(=O)O)[C@H]1CC[C@@H]2[C@@]1(CC[C@H]3[C@H]2C[C@@H]([C@@H]4[C@@]3(CCCC4)C)O)C
InChI: InChI=1S/C24H40O3/c1-15(7-10-22(26)27)17-8-9-18-16-14-21(25)20-6-4-5-12-23(20,2)19(16)11-13-24(17,18)3/h15-21,25H,4-14H2,1-3H3,(H,26,27)/t15-,16+,17-,18+,19+,20+,21+,23-,24-/m1/s1
Instrument: JMS-T100LP, JEOL
Instrument type: LC-ESI-TOF
Ms type: MS
Ion mode: NEGATIVE
Ionization: ESI
m/z	relative intensity
62.00565	44
79.9692	7
96.96906	20
183.01418	50
184.01549	8
185.01521	4
255.2235	4
297.14506	3
305.68632	1
311.17009	19
312.17436	5
313.1749	2
325.18412	27
326.18595	6
339.19949	22
340.2026	4
353.20468	3
367.37711	3
373.2791	10
375.27629	999
376.28329	302
377.29858	38
381.22467	1
391.28042	2
397.23192	2
407.31213	44
408.32802	10
411.26576	3
433.26071	9
435.25028	4
608.54604	1
707.11304	2
751.60269	16
752.62141	7
753.61434	4
773.55497	53
774.57619	31
777.57732	2
778.06971	2
969.65575	3
