Mass spectrum: 3a,6b,7b,12a-Tetrahydroxy-5b-cholan-24-oic acid; LC-ESI-TOF; MS; Orifice voltage  -120 V; Negative; In-suorce decay
Name: 3a,6b,7b,12a-Tetrahydroxy-5b-cholan-24-oic acid
Class: Natural Product; Bile acid
Formula: C24H40O6
Exact mass: 424.28249
SMILES: C[C@H](CCC(=O)O)[C@H]1CC[C@@H]2[C@@]1([C@H](C[C@H]3[C@H]2[C@H]([C@H]([C@H]4[C@@]3(CC[C@H](C4)O)C)O)O)O)C
InChI: InChI=1S/C24H40O6/c1-12(4-7-19(27)28)14-5-6-15-20-16(11-18(26)24(14,15)3)23(2)9-8-13(25)10-17(23)21(29)22(20)30/h12-18,20-22,25-26,29-30H,4-11H2,1-3H3,(H,27,28)/t12-,13-,14-,15+,16+,17+,18+,20+,21+,22-,23-,24-/m1/s1
Instrument: JMS-T100LP, JEOL
Instrument type: LC-ESI-TOF
Ms type: MS
Ion mode: NEGATIVE
Ionization: ESI
m/z	relative intensity
61.97385	45
82.94316	6
98.94081	7
217.15156	13
303.23234	11
309.2137	10
325.23705	8
327.24129	4
341.24033	41
342.25053	7
343.25374	6
359.25317	13
361.26746	6
369.23316	6
379.29351	8
405.25921	9
421.25585	5
423.25373	999
424.25956	286
425.27503	51
426.27623	6
459.23776	66
460.24717	20
461.23546	21
462.25623	5
481.23673	19
482.23305	5
483.25601	6
486.26353	20
487.28316	4
847.5346	137
848.53915	76
849.55636	44
869.51901	68
870.53056	65
883.52845	25
884.54173	15
885.51991	14
886.52584	9
