Mass spectrum: 3a,6b,7b,12a-Tetrahydroxy-5b-cholan-24-oic acid; LC-ESI-TOF; MS; Orifice voltage  -90 V; Negative; In-suorce decay
Name: 3a,6b,7b,12a-Tetrahydroxy-5b-cholan-24-oic acid
Class: Natural Product; Bile acid
Formula: C24H40O6
Exact mass: 424.28249
SMILES: C[C@H](CCC(=O)O)[C@H]1CC[C@@H]2[C@@]1([C@H](C[C@H]3[C@H]2[C@H]([C@H]([C@H]4[C@@]3(CC[C@H](C4)O)C)O)O)O)C
InChI: InChI=1S/C24H40O6/c1-12(4-7-19(27)28)14-5-6-15-20-16(11-18(26)24(14,15)3)23(2)9-8-13(25)10-17(23)21(29)22(20)30/h12-18,20-22,25-26,29-30H,4-11H2,1-3H3,(H,27,28)/t12-,13-,14-,15+,16+,17+,18+,20+,21+,22-,23-,24-/m1/s1
Instrument: JMS-T100LP, JEOL
Instrument type: LC-ESI-TOF
Ms type: MS
Ion mode: NEGATIVE
Ionization: ESI
m/z	relative intensity
61.97341	73
68.98272	8
98.94006	10
255.23134	8
283.25459	6
423.25377	999
424.25966	285
425.27451	49
426.2773	7
459.23876	56
460.24836	14
461.23423	18
462.25402	4
481.23846	11
486.26544	9
491.26003	8
847.52853	228
848.53388	125
849.55005	43
850.55928	17
851.60784	5
869.52481	44
870.53525	38
883.53096	19
884.54602	10
885.52225	10
886.52633	6
