Mass spectrum: 3a,6b,7b,12a-Tetrahydroxy-5b-cholan-24-oic acid; LC-ESI-TOF; MS; Orifice voltage  -150 V; Negative; In-suorce decay
Name: 3a,6b,7b,12a-Tetrahydroxy-5b-cholan-24-oic acid
Class: Natural Product; Bile acid
Formula: C24H40O6
Exact mass: 424.28249
SMILES: C[C@H](CCC(=O)O)[C@H]1CC[C@@H]2[C@@]1([C@H](C[C@H]3[C@H]2[C@H]([C@H]([C@H]4[C@@]3(CC[C@H](C4)O)C)O)O)O)C
InChI: InChI=1S/C24H40O6/c1-12(4-7-19(27)28)14-5-6-15-20-16(11-18(26)24(14,15)3)23(2)9-8-13(25)10-17(23)21(29)22(20)30/h12-18,20-22,25-26,29-30H,4-11H2,1-3H3,(H,27,28)/t12-,13-,14-,15+,16+,17+,18+,20+,21+,22-,23-,24-/m1/s1
Instrument: JMS-T100LP, JEOL
Instrument type: LC-ESI-TOF
Ms type: MS
Ion mode: NEGATIVE
Ionization: ESI
m/z	relative intensity
52.26359	1
57.02175	23
57.99152	7
61.97435	50
69.0235	16
71.03899	5
79.94894	5
82.94317	15
98.94241	7
133.07475	7
183.01206	10
199.13352	9
205.15723	5
207.13779	12
215.13927	9
217.15147	43
218.16559	6
219.15399	6
221.18318	4
225.13111	11
233.16926	8
241.15822	10
257.18358	6
269.20669	5
271.2085	3
273.19154	6
275.20742	7
283.21437	5
285.21871	6
287.2142	18
288.21906	4
289.21334	8
291.20367	5
293.19931	4
297.22874	3
301.21281	14
303.2316	37
304.22553	9
305.2178	8
305.74909	1
307.21015	8
309.21241	21
310.22049	3
311.2312	5
313.24334	8
323.23404	14
324.22717	3
325.23131	24
326.23984	6
327.23939	16
328.25308	4
329.25617	11
330.24846	2
331.26072	5
339.23672	6
341.23836	112
342.24918	23
343.25119	19
345.26407	6
347.26202	8
351.23134	5
353.21383	6
357.24966	5
359.25024	36
360.25936	9
361.26625	13
362.28271	5
369.2347	17
370.24193	6
370.83511	1
373.2746	4
377.26256	10
378.27195	3
379.29293	13
385.23905	4
387.25124	10
405.26198	11
421.25897	10
423.25446	999
424.26336	317
425.27982	53
459.23489	170
460.24676	49
461.23408	59
462.25074	11
481.23768	36
482.23634	10
483.24534	12
484.23315	3
486.26056	50
487.27936	13
508.24308	8
847.53736	233
848.54183	130
849.55551	51
853.61897	1
869.51827	151
870.52934	89
871.53965	32
883.52534	47
884.53837	25
885.51709	27
897.59753	2
905.53937	6
906.52011	3
907.57087	3
910.58173	5
927.48193	8
928.5047	5
929.53064	4
