Mass spectrum: 6a-Hydroxy-5a-cholan-24-oic acid; LC-ESI-TOF; MS; Orifice voltage  -90 V; Negative; In-suorce decay
Name: 6a-Hydroxy-5a-cholan-24-oic acid
Class: Natural Product; Bile acid
Formula: C24H40O3
Exact mass: 376.29775
SMILES: C[C@H](CCC(=O)O)[C@H]1CC[C@@H]2[C@@]1(CC[C@H]3[C@H]2C[C@@H]([C@@H]4[C@@]3(CCCC4)C)O)C
InChI: InChI=1S/C24H40O3/c1-15(7-10-22(26)27)17-8-9-18-16-14-21(25)20-6-4-5-12-23(20,2)19(16)11-13-24(17,18)3/h15-21,25H,4-14H2,1-3H3,(H,26,27)/t15-,16+,17-,18+,19+,20+,21+,23-,24-/m1/s1
Instrument: JMS-T100LP, JEOL
Instrument type: LC-ESI-TOF
Ms type: MS
Ion mode: NEGATIVE
Ionization: ESI
m/z	relative intensity
62.00635	94
69.01288	24
96.97081	7
227.19923	10
241.21162	12
253.21014	43
254.2216	7
255.22815	65
256.22735	11
265.1395	7
267.22745	6
269.2448	7
279.22545	5
281.24498	22
282.25381	3
283.25694	29
284.26571	5
297.14756	12
309.17813	4
311.17048	42
312.17249	5
313.17559	2
325.1861	38
326.19774	8
327.19678	2
339.19889	29
340.20036	5
353.20417	4
373.28083	8
374.27732	3
375.27849	999
376.2848	306
376.82754	4
377.30058	30
381.34683	1
391.28536	3
407.31368	47
408.32597	13
411.28187	2
433.25948	14
435.25423	6
443.27345	8
751.59863	57
752.61018	33
773.55992	46
774.58084	42
776.59107	2
