Mass spectrum: Ethyl benzoate; GC-APCI-QTOF; MS2; CE: 40 eV; R=35000; [M+H]+
Name: Ethyl benzoate
Formula: C9H10O2
Exact mass: 150.0681
SMILES: CCOC(=O)C1=CC=CC=C1
InChI: InChI=1S/C9H10O2/c1-2-11-9(10)8-6-4-3-5-7-8/h3-7H,2H2,1H3
Instrument: Bruker 450 GC coupled to maXis Impact
Instrument type: GC-APCI-QTOF
Base peak: 151.0779
Precursor m/z: 151.0754
Precursor type: [M+H]+
m/z	relative intensity	assigned
51.0225	405	C4H3+
79.0544	255	C6H7+
95.0489	999	C6H7O+
