Mass spectrum: 1-Phenyl-2-butanone; GC-APCI-QTOF; MS2; CE: 50 eV; R=35000; [M+H]+
Name: 1-Phenyl-2-butanone
Formula: C10H12O
Exact mass: 148.0888
SMILES: CCC(=O)CC1=CC=CC=C1
InChI: InChI=1S/C10H12O/c1-2-10(11)8-9-6-4-3-5-7-9/h3-7H,2,8H2,1H3
Instrument: Bruker 450 GC coupled to maXis Impact
Instrument type: GC-APCI-QTOF
Base peak: 149.0981
Precursor m/z: 149.0961
Precursor type: [M+H]+
m/z	relative intensity	assigned
57.0338	999	C3H5O+
65.0393	736	C5H5+
