Mass spectrum: Benzyl methacrylate; GC-APCI-QTOF; MS2; CE: 30 eV; R=35000; [M+H]+
Name: Benzyl methacrylate
Formula: C11H12O2
Exact mass: 176.0837
SMILES: CC(=C)C(=O)OCC1=CC=CC=C1
InChI: InChI=1S/C11H12O2/c1-9(2)11(12)13-8-10-6-4-3-5-7-10/h3-7H,1,8H2,2H3
Instrument: Bruker 450 GC coupled to maXis Impact
Instrument type: GC-APCI-QTOF
Base peak: 195.0873
Precursor m/z: 177.091
Precursor type: [M+H]+
m/z	relative intensity	assigned
152.0287	213	C11H4O+
170.0376	999	C11H6O2+
