Mass spectrum: Diallyl phthalate; GC-APCI-QTOF; MS2; CE: 50 eV; R=35000; [M]+
Name: Diallyl phthalate
Formula: C14H14O4
Exact mass: 246.0892
SMILES: C=CCOC(=O)C1=CC=CC=C1C(=O)OCC=C
InChI: InChI=1S/C14H14O4/c1-3-9-17-13(15)11-7-5-6-8-12(11)14(16)18-10-4-2/h3-8H,1-2,9-10H2
Instrument: Bruker 450 GC coupled to maXis Impact
Instrument type: GC-APCI-QTOF
Base peak: 283.2617
Precursor m/z: 246.0887
Precursor type: [M]+
m/z	relative intensity	assigned
119.0867	999	C9H11+
