Mass spectrum: 2,4-Di-tert-butyl-phenol; GC-APCI-QTOF; MS2; CE: 10 eV; R=35000; [M]+
Name: 2,4-Di-tert-butyl-phenol
Formula: C14H22O
Exact mass: 206.1671
SMILES: CC(C)(C)C1=CC(=C(C=C1)O)C(C)(C)C
InChI: InChI=1S/C14H22O/c1-13(2,3)10-7-8-12(15)11(9-10)14(4,5)6/h7-9,15H,1-6H3
Instrument: Bruker 450 GC coupled to maXis Impact
Instrument type: GC-APCI-QTOF
Base peak: 206.1672
Precursor m/z: 206.1665
Precursor type: [M]+
m/z	relative intensity	assigned
191.1443	999	C13H19O+
192.1481	109	C13H20O+
205.1584	5	C14H21O+
206.167	574	C14H22O+
