Mass spectrum: Dodecanoic acid; GC-APCI-QTOF; MS2; CE: 40 eV; R=35000; [M+H]+
Name: Dodecanoic acid
Formula: C12H24O2
Exact mass: 200.1776
SMILES: CCCCCCCCCCCC(=O)O
InChI: InChI=1S/C12H24O2/c1-2-3-4-5-6-7-8-9-10-11-12(13)14/h2-11H2,1H3,(H,13,14)
Instrument: Bruker 450 GC coupled to maXis Impact
Instrument type: GC-APCI-QTOF
Base peak: 201.1854
Precursor m/z: 201.1849
Precursor type: [M+H]+
m/z	relative intensity	assigned
55.0552	999	C4H7+
57.07	451	C4H9+
59.0501	563	C3H7O+
