Mass spectrum: N,N-dibutylformamide; GC-APCI-QTOF; MS2; CE: 40 eV; R=35000; [M]+
Name: N,N-dibutylformamide
Formula: C9H19NO
Exact mass: 157.1467
SMILES: CCCCN(CCCC)C=O
InChI: InChI=1S/C9H19NO/c1-3-5-7-10(9-11)8-6-4-2/h9H,3-8H2,1-2H3
Instrument: Bruker 450 GC coupled to maXis Impact
Instrument type: GC-APCI-QTOF
Base peak: 157.1254
Precursor m/z: 157.1461
Precursor type: [M]+
m/z	relative intensity	assigned
55.0554	999	C4H7+
