Mass spectrum: Vinyl laurate; GC-APCI-QTOF; MS2; CE: 40 eV; R=35000; [M+H]+
Name: Vinyl laurate
Formula: C14H26O2
Exact mass: 226.1933
SMILES: CCCCCCCCCCCC(=O)OC=C
InChI: InChI=1S/C14H26O2/c1-3-5-6-7-8-9-10-11-12-13-14(15)16-4-2/h4H,2-3,5-13H2,1H3
Instrument: Bruker 450 GC coupled to maXis Impact
Instrument type: GC-APCI-QTOF
Base peak: 183.1765
Precursor m/z: 227.2006
Precursor type: [M+H]+
m/z	relative intensity	assigned
55.0555	999	C4H7+
