Mass spectrum: Methyl 4-hydroxybenzoate; GC-APCI-QTOF; MS2; CE: 10 eV; R=35000; [M]+
Name: Methyl 4-hydroxybenzoate
Formula: C8H8O3
Exact mass: 152.0473
SMILES: COC(=O)C1=CC=C(C=C1)O
InChI: InChI=1S/C8H8O3/c1-11-8(10)6-2-4-7(9)5-3-6/h2-5,9H,1H3
Instrument: Bruker 450 GC coupled to maXis Impact
Instrument type: GC-APCI-QTOF
Base peak: 153.0562
Precursor m/z: 152.0468
Precursor type: [M]+
m/z	relative intensity	assigned
121.0278	999	C7H5O2+
151.0408	64	C8H7O3+
152.0484	83	C8H8O3+
