Mass spectrum: 1,6-Bis(acryloyloxy)hexane; GC-APCI-QTOF; MS2; CE: 40 eV; R=35000; [M+H]+
Name: 1,6-Bis(acryloyloxy)hexane
Formula: C12H18O4
Exact mass: 226.1205
SMILES: C=CC(=O)OCCCCCCOC(=O)C=C
InChI: InChI=1S/C12H18O4/c1-3-11(13)15-9-7-5-6-8-10-16-12(14)4-2/h3-4H,1-2,5-10H2
Instrument: Bruker 450 GC coupled to maXis Impact
Instrument type: GC-APCI-QTOF
Base peak: 227.1268
Precursor m/z: 227.1278
Precursor type: [M+H]+
m/z	relative intensity	assigned
55.019	293	C3H3O+
55.0552	999	C4H7+
73.029	53	C3H5O2+
