Mass spectrum: Methyl benzoate; GC-APCI-QTOF; MS2; CE: 30 eV; R=35000; [M+H]+
Name: Methyl benzoate
Formula: C8H8O2
Exact mass: 136.0524
SMILES: COC(=O)C1=CC=CC=C1
InChI: InChI=1S/C8H8O2/c1-10-8(9)7-5-3-2-4-6-7/h2-6H,1H3
Instrument: Bruker 450 GC coupled to maXis Impact
Instrument type: GC-APCI-QTOF
Base peak: 137.0601
Precursor m/z: 137.0597
Precursor type: [M+H]+
m/z	relative intensity	assigned
53.0396	626	C4H5+
91.056	999	C7H7+
95.0501	863	C6H7O+
