Mass spectrum: Ethylene glycol dimethacrylate; GC-APCI-QTOF; MS2; CE: 20 eV; R=35000; [M+H]+
Name: Ethylene glycol dimethacrylate
Formula: C10H14O4
Exact mass: 198.0892
SMILES: CC(=C)C(=O)OCCOC(=O)C(=C)C
InChI: InChI=1S/C10H14O4/c1-7(2)9(11)13-5-6-14-10(12)8(3)4/h1,3,5-6H2,2,4H3
Instrument: Bruker 450 GC coupled to maXis Impact
Instrument type: GC-APCI-QTOF
Base peak: 217.1439
Precursor m/z: 199.0965
Precursor type: [M+H]+
m/z	relative intensity	assigned
124.0892	999	C8H12O+
