Mass spectrum: beta-Pinene; GC-APCI-QTOF; MS2; CE: 20 eV; R=35000; [M+H]+
Name: beta-Pinene
Formula: C10H16
Exact mass: 136.1252
SMILES: CC1(C2CCC(=C)C1C2)C
InChI: InChI=1S/C10H16/c1-7-4-5-8-6-9(7)10(8,2)3/h8-9H,1,4-6H2,2-3H3
Instrument: Bruker 450 GC coupled to maXis Impact
Instrument type: GC-APCI-QTOF
Base peak: 299.0606
Precursor m/z: 137.1325
Precursor type: [M+H]+
m/z	relative intensity	assigned
121.101	999	C9H13+
122.107	749	C9H14+
