Mass spectrum: Biochanin A glucosylglucoside dimalonylated; ESI-TOF; MS2; CE:15 eV; [M+H]+
Name: Biochanin A glucosylglucoside dimalonylated
Class: Natural Product; isoflavone
Formula: C34H36O21
Exact mass: 780.174908172
SMILES: not available
InChI: not available
Instrument: micrOTOF-Q
Instrument type: ESI-TOF
Precursor m/z: 781.185
Precursor type: [M+H]+
Base peak: 285.076
m/z	relative intensity
285.0757	999
286.0774	129
533.1302	318
781.1884	604
782.1866	246
783.1859	93
