Mass spectrum: Luteone O-glucoside; ESI-TOF; MS2; CE:15 eV; [M+H]+
Name: Luteone O-glucoside
Class: Natural Product; isoflavone
Formula: C26H28O11
Exact mass: 516.163161716
SMILES: not available
InChI: not available
Instrument: micrOTOF-Q
Instrument type: ESI-TOF
Precursor m/z: 517.174
Precursor type: [M+H]+
Base peak: 461.111
m/z	relative intensity
299.0628	343
461.1114	999
