Mass spectrum: Naringenin; ESI-TOF; MS2; CE:25 eV; [M-H]-
Name: Naringenin
Name: 5,7-Dihydroxy-2-(4-hydroxyphenyl)chroman-4-one
Name: Salipurol
Class: Natural Product; flavanone
Formula: C15H12O5
Exact mass: 272.068473484
SMILES: OC=1C=CC(=CC=1)C2CC(=O)C3=C(O)C=C(O)C=C3(O2)
InChI: not available
Instrument: micrOTOF-Q
Instrument type: ESI-TOF
Precursor m/z: 271.059
Precursor type: [M-H]-
Base peak: 119.046
m/z	relative intensity
83.011	15
93.031	53
107.012	95
108.019	21
117.032	35
119.048	999
120.052	55
143.048	20
145.028	35
151.002	45
161.060	22
187.039	43
