Mass spectrum: Luteolin 3',7-O-diglucoside; ESI-TOF; MS2; CE:15 eV; [M+H]+
Name: Luteolin 3',7-O-diglucoside
Class: Natural Product; flavone
Formula: C27H30O16
Exact mass: 610.15338488
SMILES: OCC5OC(OC1=CC(O)=C2C(=O)C=C(OC2(=C1))C=4C=CC(OC3OC(CO)C(O)C(O)C3(O))=C(O)C=4)C(O)C(O)C5(O)
InChI: not available
Instrument: micrOTOF-Q
Instrument type: ESI-TOF
Precursor m/z: 611.163
Precursor type: [M+H]+
Base peak: 449.109
m/z	relative intensity
287.0541	30
449.1095	999
450.1126	131
451.1146	38
611.1686	35
612.1738	8
