Mass spectrum: 7,4'-Dihydroxyflavone; ESI-TOF; MS2; CE:25 eV; [M-H]-
Name: 7,4'-Dihydroxyflavone
Name: 4H-1-Benzopyran-4-one, 7-hydroxy-2-(4-hydroxyphenyl)
Name: 7-Hydroxy-2-(4-hydroxyphenyl)-4H-chromen-4-one
Class: Natural Product; flavone
Formula: C15H10O4
Exact mass: 254.0579088
SMILES: OC=1C=CC(=CC=1)C2=CC(=O)C3=CC=C(O)C=C3(O2)
InChI: not available
Instrument: micrOTOF-Q
Instrument type: ESI-TOF
Precursor m/z: 253.05
Precursor type: [M-H]-
Base peak: 117.035
m/z	relative intensity
89.034	13
91.016	65
117.033	999
118.036	69
132.020	25
133.028	41
135.007	32
180.060	26
195.045	19
223.044	42
224.046	24
