Mass spectrum: Chrysoeriol 7-O-glucoside; ESI-TOF; MS2; CE:15 eV; [M+H]+
Name: Chrysoeriol 7-O-glucoside
Class: Natural Product; flavone
Formula: C22H22O11
Exact mass: 462.116211524
SMILES: COC=1C=C(C=CC=1(O))C2=CC(=O)C3=C(O)C=C(C=C3(O2))OC4OC(CO)C(O)C(O)C4(O)
InChI: not available
Instrument: micrOTOF-Q
Instrument type: ESI-TOF
Precursor m/z: 463.124
Precursor type: [M+H]+
Base peak: 301.072
m/z	relative intensity
301.0719	999
302.0755	129
303.0793	19
463.1224	18
