Mass spectrum: Luteone O-glucosylglucoside; ESI-TOF; MS2; CE:15 eV; [M+H]+
Name: Luteone O-glucosylglucoside
Class: Natural Product; isoflavone
Formula: C32H38O16
Exact mass: 678.2159851360001
SMILES: not available
InChI: not available
Instrument: micrOTOF-Q
Instrument type: ESI-TOF
Precursor m/z: 679.223
Precursor type: [M+H]+
Base peak: 517.172
m/z	relative intensity
299.0602	69
355.1214	246
356.1276	43
461.1074	728
462.1110	159
463.1226	41
517.1719	999
518.1733	324
519.1734	56
679.2225	103
