Mass spectrum: Kaempferol-7-O-glucoside; ESI-TOF; MS2; CE:15 eV; [M+H]+
Name: Kaempferol-7-O-glucoside
Name: Populnin
Class: Natural Product; flavonol
Formula: C21H20O11
Exact mass: 448.10056146
SMILES: OCC4OC(OC=1C=C(O)C=2C(=O)C(O)=C(OC=2(C=1))C3=CC=C(O)C=C3)C(O)C(O)C4(O)
Instrument: micrOTOF-Q
Instrument type: ESI-TOF
Ms type: MS2
Ion mode: POSITIVE
Collision energy: 15 eV
Ionization: ESI
Retention time: 304.533
Column name: Poroshell 120,EC-C18 2.1x100mm,2.7um
Precursor m/z: 449.104
Precursor type: [M+H]+
Base peak: 287.048
m/z	relative intensity
287.0515	999
288.0555	113
289.0574	15
