Mass spectrum: Luteone O-glucoside; ESI-TOF; MS2; CE:25 eV; [M-H]-
Name: Luteone O-glucoside
Class: Natural Product; isoflavone
Formula: C26H28O11
Exact mass: 516.163161716
SMILES: not available
InChI: not available
Instrument: micrOTOF-Q
Instrument type: ESI-TOF
Precursor m/z: 515.158
Precursor type: [M-H]-
Base peak: 515.158
m/z	relative intensity
309.0403	73
352.0949	80
353.1035	285
354.1057	76
447.1744	70
515.1579	999
516.1621	277
517.1633	59
