Mass spectrum: Genistein 8-C-glucoside; ESI-TOF; MS2; CE:15 eV; [M+H]+
Name: Genistein 8-C-glucoside
Class: Natural Product; isoflavone
Formula: C21H20O10
Exact mass: 432.10564683999996
SMILES: OCC1OC(C(O)C(O)C1(O))C=3C(O)=CC(O)=C2C(=O)C(=COC2=3)C=4C=CC(O)=CC=4
InChI: not available
Instrument: micrOTOF-Q
Instrument type: ESI-TOF
Precursor m/z: 433.116
Precursor type: [M+H]+
Base peak: 397.089
m/z	relative intensity
217.0502	5
243.0305	5
283.0608	47
284.0641	16
295.0636	14
297.0768	6
311.0597	8
313.0713	279
314.0767	32
315.0777	8
323.0882	11
325.0724	4
337.0738	42
338.0758	6
343.0830	32
344.0872	5
349.0583	6
351.0887	40
352.0878	9
355.0801	20
356.0844	4
367.0828	210
368.0870	28
369.0914	16
379.0815	211
380.0888	28
381.0897	6
397.0938	999
398.0993	114
399.1009	28
415.1056	785
416.1063	108
417.1149	18
433.1159	386
434.1184	62
435.1253	17
