Mass spectrum: Genistein 4',7-O-diglucoside dimalonylated; ESI-TOF; MS2; CE:15 eV; [M+H]+
Name: Genistein 4',7-O-diglucoside dimalonylated
Class: Natural Product; isoflavone
Formula: C33H34O21
Exact mass: 766.1592581079999
SMILES: not available
InChI: not available
Instrument: micrOTOF-Q
Instrument type: ESI-TOF
Precursor m/z: 767.168
Precursor type: [M+H]+
Base peak: 519.115
m/z	relative intensity
271.0609	177
519.1165	999
520.1147	229
521.1138	66
767.1696	528
768.1718	129
