Mass spectrum: Chrysoeriol diglucoside methylmalonylated; ESI-TOF; MS2; CE:15 eV; [M+H]+
Name: Chrysoeriol diglucoside methylmalonylated
Class: Natural Product; flavone
Formula: C32H36O19
Exact mass: 724.1850789319999
SMILES: not available
InChI: not available
Instrument: micrOTOF-Q
Instrument type: ESI-TOF
Precursor m/z: 725.186
Precursor type: [M+H]+
Base peak: 301.068
m/z	relative intensity
301.0676	999
