Mass spectrum: Apigenin; ESI-TOF; MS2; CE:25 eV; [M-H]-
Name: Apigenin
Name: 4',5,7-Trihydroxyflavone
Name: Spigenin
Class: Natural Product; flavone
Formula: C15H10O5
Exact mass: 270.05282342
SMILES: OC=1C=CC(=CC=1)C2=CC(=O)C3=C(O)C=C(O)C=C3(O2)
InChI: not available
Instrument: micrOTOF-Q
Instrument type: ESI-TOF
Precursor m/z: 269.042
Precursor type: [M-H]-
Base peak: 117.032
m/z	relative intensity
105.032	16
107.010	69
117.032	999
118.036	97
121.026	58
149.023	35
151.001	57
159.042	45
183.043	22
227.031	23
