Mass spectrum: Biochanin A 8-C-glucoside; ESI-TOF; MS2; CE:25 eV; [M-H]-
Name: Biochanin A 8-C-glucoside
Class: Natural Product; isoflavone
Formula: C22H22O10
Exact mass: 446.121296904
SMILES: COC=1C=CC(=CC=1)C4=COC=3C(=C(O)C=C(O)C=3(C2OC(CO)C(O)C(O)C2(O)))C4(=O)
InChI: not available
Instrument: micrOTOF-Q
Instrument type: ESI-TOF
Precursor m/z: 445.118
Precursor type: [M-H]-
Base peak: 325.074
m/z	relative intensity
149.028	21
179.031	4
217.053	4
257.081	5
281.059	7
282.053	358
283.057	55
284.061	9
297.077	196
298.083	29
307.060	16
310.042	6
325.071	999
326.074	131
327.082	16
337.071	18
355.084	40
356.087	7
367.083	8
445.116	15
