Mass spectrum: 2'-Hydroxygenistein; ESI-TOF; MS2; CE:15 eV; [M+H]+
Name: 2'-Hydroxygenistein
Name: 2'-Hydroxy-genistein
Name: 5,7,2',4'-Tetrahydroxyisoflavone
Name: 2'-Hydroxygenistein
Class: Natural Product; isoflavone
Formula: C15H10O6
Exact mass: 286.04773804
SMILES: OC1=CC=C(C(O)=C1)C2=COC3=CC(O)=CC(O)=C3(C2(=O))
InChI: not available
Instrument: micrOTOF-Q
Instrument type: ESI-TOF
Precursor m/z: 287.051
Precursor type: [M+H]+
Base peak: 153.017
m/z	relative intensity
89.037	42
91.054	108
103.052	134
107.049	375
109.027	94
111.005	55
115.053	413
119.050	69
121.062	159
123.043	103
124.016	108
128.061	103
131.051	72
132.056	46
133.063	200
137.020	42
143.046	68
145.063	86
147.041	316
149.030	41
153.017	999
154.021	62
157.063	133
160.051	82
161.054	258
162.057	44
163.037	125
171.042	261
175.041	66
185.059	86
189.051	324
191.032	49
199.035	44
200.044	49
203.036	94
213.051	139
216.039	224
217.045	880
218.051	180
269.037	44
