Mass spectrum: Genistein 4',7-O-diglucoside malonylated; ESI-TOF; MS2; CE:15 eV; [M+H]+
Name: Genistein 4',7-O-diglucoside malonylated
Class: Natural Product; isoflavone
Formula: C30H32O18
Exact mass: 680.158864184
SMILES: not available
InChI: not available
Instrument: micrOTOF-Q
Instrument type: ESI-TOF
Precursor m/z: 681.172
Precursor type: [M+H]+
Base peak: 271.056
m/z	relative intensity
271.0635	999
519.1231	389
