Mass spectrum: Chrysoeriol 8-C-glucoside; ESI-TOF; MS2; CE:15 eV; [M+H]+
Name: Chrysoeriol 8-C-glucoside
Name: Scoparin
Class: Natural Product; flavone
Formula: C22H22O11
Exact mass: 462.116211524
SMILES: COC1=CC(=CC=C1(O))C3=CC(=O)C4=C(O)C=C(O)C(C2OC(CO)C(O)C(O)C2(O))=C4(O3)
InChI: not available
Instrument: micrOTOF-Q
Instrument type: ESI-TOF
Precursor m/z: 463.125
Precursor type: [M+H]+
Base peak: 427.105
m/z	relative intensity
313.0706	43
325.0714	11
343.0835	259
344.0892	52
345.0891	8
353.0988	45
355.0845	20
367.0830	225
368.0855	43
373.0953	136
374.0994	20
379.0839	16
381.1029	83
382.1034	23
385.0964	41
397.0956	258
398.1012	52
399.1004	18
409.0939	204
410.0969	41
411.1090	9
427.1053	999
428.1115	139
429.1129	22
445.1166	999
446.1180	181
447.1299	41
463.1264	634
464.1315	101
465.1357	25
