Mass spectrum: Luteone diglucoside malonylated; ESI-TOF; MS2; CE:15 eV; [M+H]+
Name: Luteone diglucoside malonylated
Class: Natural Product; isoflavone
Formula: C35H40O19
Exact mass: 764.21637906
SMILES: not available
InChI: not available
Instrument: micrOTOF-Q
Instrument type: ESI-TOF
Precursor m/z: 765.225
Precursor type: [M+H]+
Base peak: 603.169
m/z	relative intensity
355.1197	241
461.1066	379
517.1725	472
547.1062	246
603.1694	999
604.1749	197
765.2178	528
766.2273	169
