Mass spectrum: Biochanin A O-glucosylglucoside; ESI-TOF; MS2; CE:15 eV; [M+H]+
Name: Biochanin A O-glucosylglucoside
Class: Natural Product; isoflavone
Formula: C28H32O15
Exact mass: 608.174120324
SMILES: not available
InChI: not available
Instrument: micrOTOF-Q
Instrument type: ESI-TOF
Precursor m/z: 609.184
Precursor type: [M+H]+
Base peak: 285.076
m/z	relative intensity
145.0527	5
285.0756	999
286.0797	99
287.0877	11
429.1245	4
447.1291	55
448.1372	9
449.1383	4
609.1815	33
610.1848	7
611.1953	3
