Mass spectrum: Chrysoeriol O-glucoside malonylated; ESI-TOF; MS2; CE:15 eV; [M+H]+
Name: Chrysoeriol O-glucoside malonylated
Class: Natural Product; flavone
Formula: C25H24O14
Exact mass: 548.116605448
SMILES: not available
InChI: not available
Instrument: micrOTOF-Q
Instrument type: ESI-TOF
Precursor m/z: 549.127
Precursor type: [M+H]+
Base peak: 301.071
m/z	relative intensity
301.0708	999
302.0746	186
303.0826	73
463.1248	110
549.1300	245
550.1268	40
