Mass spectrum: Vitexin; ESI-TOF; MS2; CE:25 eV; [M-H]-
Name: Vitexin
Name: Apigenin-8-C-glucoside
Class: Natural Product; flavone
Formula: C21H20O10
Exact mass: 432.10564683999996
SMILES: OCC1OC(C(O)C(O)C1(O))C=3C(O)=CC(O)=C2C(=O)C=C(OC2=3)C=4C=CC(O)=CC=4
InChI: not available
Instrument: micrOTOF-Q
Instrument type: ESI-TOF
Precursor m/z: 431.092
Precursor type: [M-H]-
Base peak: 311.052
m/z	relative intensity
117.036	14
149.025	12
161.025	12
163.037	12
191.035	12
269.042	30
281.041	22
282.050	18
283.060	484
284.062	84
285.063	12
293.043	16
311.052	999
312.059	134
313.060	22
323.053	39
341.065	63
