Mass spectrum: Genistein 8-C-glucoside; ESI-TOF; MS2; CE:25 eV; [M-H]-
Name: Genistein 8-C-glucoside
Class: Natural Product; isoflavone
Formula: C21H20O10
Exact mass: 432.10564683999996
SMILES: OCC1OC(C(O)C(O)C1(O))C=3C(O)=CC(O)=C2C(=O)C(=COC2=3)C=4C=CC(O)=CC=4
InChI: not available
Instrument: micrOTOF-Q
Instrument type: ESI-TOF
Precursor m/z: 431.103
Precursor type: [M-H]-
Base peak: 311.049
m/z	relative intensity
117.038	12
149.021	10
159.044	5
161.023	11
163.040	7
173.023	5
191.032	13
203.036	5
268.042	7
269.049	19
281.049	18
282.056	11
283.061	539
284.064	58
285.067	8
293.046	19
295.059	5
309.038	7
311.056	999
312.061	133
313.064	21
314.049	5
323.056	36
324.058	8
341.068	52
342.069	9
431.099	13
