Mass spectrum: Vitexin; ESI-TOF; MS2; CE:15 eV; [M+H]+
Name: Vitexin
Name: Apigenin-8-C-glucoside
Class: Natural Product; flavone
Formula: C21H20O10
Exact mass: 432.10564683999996
SMILES: OCC1OC(C(O)C(O)C1(O))C=3C(O)=CC(O)=C2C(=O)C=C(OC2=3)C=4C=CC(O)=CC=4
InChI: not available
Instrument: micrOTOF-Q
Instrument type: ESI-TOF
Precursor m/z: 433.113
Precursor type: [M+H]+
Base peak: 397.092
m/z	relative intensity
283.0588	124
284.0612	22
295.0606	29
311.0594	14
313.0703	450
314.0735	68
323.0906	25
337.0692	60
338.0733	21
343.0782	52
351.0896	62
352.0824	14
355.0786	29
367.0796	245
368.0849	54
369.0963	15
379.0808	233
380.0870	45
397.0923	999
398.0965	167
399.1020	34
415.1028	695
416.1046	126
417.1095	24
433.1135	307
434.1152	54
435.1176	18
