Mass spectrum: Luteone diglucoside malonylated; ESI-TOF; MS2; CE:15 eV; [M+H]+
Name: Luteone diglucoside malonylated
Class: Natural Product; isoflavone
Formula: C35H40O19
Exact mass: 764.21637906
SMILES: not available
InChI: not available
Instrument: micrOTOF-Q
Instrument type: ESI-TOF
Precursor m/z: 765.225
Precursor type: [M+H]+
Base peak: 517.174
m/z	relative intensity
461.1115	581
517.1744	999
518.1802	463
547.1169	259
603.1760	542
765.2197	690
766.2317	193
