Mass spectrum: Chrysoeriol glucosylglucoside; ESI-TOF; MS2; CE:15 eV; [M+H]+
Name: Chrysoeriol glucosylglucoside
Class: Natural Product; flavone
Formula: C28H32O16
Exact mass: 624.169034944
SMILES: not available
InChI: not available
Instrument: micrOTOF-Q
Instrument type: ESI-TOF
Precursor m/z: 625.176
Precursor type: [M+H]+
Base peak: 301.067
m/z	relative intensity
127.0408	1
145.0493	3
301.0705	999
302.0739	97
303.0741	13
397.0868	1
427.1002	2
445.1069	2
463.1217	114
464.1239	19
465.1288	6
625.1746	70
626.1761	16
627.1774	5
