Mass spectrum: Chrysoeriol; ESI-TOF; MS2; CE:25 eV; [M-H]-
Name: Chrysoeriol
Name: 5,7-Dihydroxy-2-(4-hydroxy-3-methoxyphenyl)-4-benzopyrone
Name: 3'-Methoxyapigenin
Class: Natural Product; flavone
Formula: C16H12O6
Exact mass: 300.06338810399996
SMILES: COC1=CC(=CC=C1(O))C2=CC(=O)C3=C(O)C=C(O)C=C3(O2)
InChI: not available
Instrument: micrOTOF-Q
Instrument type: ESI-TOF
Precursor m/z: 299.052
Precursor type: [M-H]-
Base peak: 256.034
m/z	relative intensity
107.012	143
132.016	55
133.027	79
134.037	106
151.003	288
152.010	52
183.042	106
187.039	53
188.044	63
199.035	100
200.045	106
211.041	142
227.034	362
228.037	74
255.029	314
256.034	999
257.040	106
283.022	70
284.028	597
285.034	123
