Mass spectrum: Biochanin A glucosylglucoside dimalonylated; ESI-TOF; MS2; CE:25 eV; [M-H]-
Name: Biochanin A glucosylglucoside dimalonylated
Class: Natural Product; isoflavone
Formula: C34H36O21
Exact mass: 780.174908172
SMILES: not available
InChI: not available
Instrument: micrOTOF-Q
Instrument type: ESI-TOF
Precursor m/z: 779.508
Precursor type: [M-H]-
Base peak: 283.061
m/z	relative intensity
283.061	999
284.065	95
285.071	16
325.072	11
469.117	9
487.125	36
488.131	7
531.151	6
571.138	7
589.159	26
590.154	9
607.170	33
608.177	12
631.172	14
632.178	6
649.177	164
650.185	44
651.197	20
691.190	34
692.196	8
693.201	60
694.211	14
