Mass spectrum: Genistein C,O-diglucoside malonylated; ESI-TOF; MS2; CE:15 eV; [M+H]+
Name: Genistein C,O-diglucoside malonylated
Class: Natural Product; isoflavone
Formula: C30H32O18
Exact mass: 680.158864184
SMILES: not available
InChI: not available
Instrument: micrOTOF-Q
Instrument type: ESI-TOF
Precursor m/z: 681.168
Precursor type: [M+H]+
Base peak: 681.165
m/z	relative intensity
313.0716	8
367.0871	7
379.0821	16
397.0935	38
398.0977	8
415.1045	121
416.1071	25
433.1162	220
434.1201	42
435.1159	8
517.1349	40
518.1416	10
519.1331	19
531.1140	7
543.1313	13
561.1277	156
562.1304	44
563.1365	10
585.1281	26
586.1353	10
627.1399	8
637.1843	21
645.1459	10
663.1578	52
664.1631	14
681.1683	999
682.1733	228
683.1765	47
684.1813	7
