Mass spectrum: Chrysoeriol O-glucosylglucoside malonylated; ESI-TOF; MS2; CE:15 eV; [M+H]+
Name: Chrysoeriol O-glucosylglucoside malonylated
Class: Natural Product; flavone
Formula: C31H34O19
Exact mass: 710.169428868
SMILES: not available
InChI: not available
Instrument: micrOTOF-Q
Instrument type: ESI-TOF
Precursor m/z: 711.436
Precursor type: [M+H]+
Base peak: 301.072
m/z	relative intensity
301.0715	999
302.0731	87
549.1271	309
550.1214	83
555.0970	70
625.1744	47
711.1729	457
712.1760	149
713.1821	45
