Mass spectrum: Isovitexin; ESI-TOF; MS2; CE:15 eV; [M+H]+
Name: Isovitexin
Name: Homovitexin
Name: Saponaretin
Name: Apigenin-6-C-glucoside
Class: Natural Product; flavone
Formula: C21H20O10
Exact mass: 432.10564683999996
SMILES: OCC1OC(C(O)C(O)C1(O))C3=C(O)C=C4OC(C=2C=CC(O)=CC=2)=C(O)C(=O)C4(=C3(O)).C
Instrument: micrOTOF-Q
Instrument type: ESI-TOF
Ms type: MS2
Ion mode: POSITIVE
Collision energy: 15 eV
Ionization: ESI
Retention time: 247.966
Column name: Poroshell 120,EC-C18 2.1x100mm,2.7um
Precursor m/z: 433.112
Precursor type: [M+H]+
Base peak: 283.06
m/z	relative intensity
271.0598	41
272.0629	12
283.0595	999
284.0632	145
285.0690	28
295.0613	37
297.0749	12
309.0688	36
311.0556	14
313.0706	996
314.0743	117
315.0722	19
323.0918	113
324.0937	26
325.0829	13
333.0769	16
337.0698	432
338.0725	90
339.0743	17
349.0692	151
350.0767	38
351.0868	74
352.0873	15
361.0716	378
362.0758	64
363.0794	15
367.0814	168
368.0872	28
379.0799	673
380.0836	130
381.0877	19
397.0914	443
398.0949	76
399.0997	12
415.1011	87
416.1025	14
