Mass spectrum: Luteone O-glucoside; ESI-TOF; MS2; CE:15 eV; [M+H]+
Name: Luteone O-glucoside
Class: Natural Product; isoflavone
Formula: C26H28O11
Exact mass: 516.163161716
SMILES: not available
InChI: not available
Instrument: micrOTOF-Q
Instrument type: ESI-TOF
Precursor m/z: 517.175
Precursor type: [M+H]+
Base peak: 299.057
m/z	relative intensity
299.0570	999
355.1176	600
