Mass spectrum: Apigenin 7-O-glucosylglucoside; ESI-TOF; MS2; CE:25 eV; [M-H]-
Name: Apigenin 7-O-glucosylglucoside
Class: Natural Product; flavone
Formula: C27H30O15
Exact mass: 594.1584702600001
SMILES: OCC5OC(OC4C(O)C(O)C(OC1=CC(O)=C2C(=O)C=C(OC2(=C1))C=3C=CC(O)=CC=3)OC4(CO))C(O)C(O)C5(O)
Instrument: micrOTOF-Q
Instrument type: ESI-TOF
Ms type: MS2
Ion mode: NEGATIVE
Ionization: ESI
Collision energy: 25 eV
Retention time: 276.394
Column name: Poroshell 120,EC-C18 2.1x100mm,2.7um
Precursor m/z: 593.151
Precursor type: [M-H]-
Base peak: 593.151
m/z	relative intensity
269.0434	910
593.1509	999
