Mass spectrum: Apigenin 7-O-glucoside; ESI-TOF; MS2; CE:25 eV; [M-H]-
Name: Apigenin 7-O-glucoside
Name: Thalictiin
Name: Apigetrin, Cosmosiine, Cosmetin, Cosmosiin
Name: Apigenin-7-O-glucoside
Name: Apigetrin
Name: Cosmeti
Name: Cosmosiine
Class: Natural Product; flavone
Formula: C21H20O10
Exact mass: 432.10564683999996
SMILES: OCC4OC(OC1=CC(O)=C2C(=O)C=C(OC2(=C1))C=3C=CC(O)=CC=3)C(O)C(O)C4(O)
InChI: not available
Instrument: micrOTOF-Q
Instrument type: ESI-TOF
Precursor m/z: 431.1
Precursor type: [M-H]-
Base peak: 269.046
m/z	relative intensity
268.038	888
269.046	999
270.051	125
431.104	110
432.104	33
