Mass spectrum: Kaempferol-3-O-glucoside; ESI-TOF; MS2; CE:25 eV; [M-H]-
Name: Kaempferol-3-O-glucoside
Name: Astragalin, trifolin
Class: Natural Product; flavonol
Formula: C21H20O11
Exact mass: 448.10056146
SMILES: OCC4OC(OC2C(=O)C3=C(O)C=C(O)C=C3(OC2(C=1C=CC(O)=CC=1)))C(O)C(O)C4(O)
Instrument: micrOTOF-Q
Instrument type: ESI-TOF
Ms type: MS2
Ion mode: NEGATIVE
Ionization: ESI
Collision energy: 25 eV
Retention time: 286.511
Column name: Poroshell 120,EC-C18 2.1x100mm,2.7um
Precursor m/z: 447.085
Precursor type: [M-H]-
Base peak: 284.029
m/z	relative intensity
151.004	10
227.033	99
228.037	13
229.045	12
255.028	222
256.032	81
257.042	13
284.029	999
285.034	309
286.040	34
327.046	7
447.086	118
448.087	20
449.091	5
