Mass spectrum: Luteone O-glucoside; ESI-TOF; MS2; CE:25 eV; [M-H]-
Name: Luteone O-glucoside
Class: Natural Product; isoflavone
Formula: C26H28O11
Exact mass: 516.163161716
SMILES: not available
InChI: not available
Instrument: micrOTOF-Q
Instrument type: ESI-TOF
Precursor m/z: 515.157
Precursor type: [M-H]-
Base peak: 353.102
m/z	relative intensity
353.1023	999
