Mass spectrum: 2'-Hydroxygenistein 8-C-glucoside; ESI-TOF; MS2; CE:15 eV; [M+H]+
Name: 2'-Hydroxygenistein 8-C-glucoside
Name: 2'-Hydroxygenistein-8-C-glucoside
Class: Natural Product; isoflavone
Formula: C21H20O11
Exact mass: 448.10056146
SMILES: OCC1OC(C(O)C(O)C1(O))C=3C(O)=CC(O)=C2C(=O)C(=COC2=3)C4=CC=C(O)C=C4(O)
InChI: not available
Instrument: micrOTOF-Q
Instrument type: ESI-TOF
Precursor m/z: 449.111
Precursor type: [M+H]+
Base peak: 413.08
m/z	relative intensity
287.0529	6
299.0582	49
300.0615	9
311.0574	13
329.0684	238
330.0718	36
331.0762	9
339.0793	9
341.0696	8
353.0703	173
354.0716	31
355.0798	7
359.0790	97
360.0835	22
365.0654	18
367.0849	79
368.0855	14
371.0735	38
372.0781	9
383.0802	268
384.0830	54
385.0948	16
395.0794	249
396.0821	44
397.0869	10
413.0889	999
414.0897	157
415.0994	38
431.1002	874
432.1023	141
433.1036	31
449.1096	505
450.1111	93
451.1197	17
