Mass spectrum: Genistein C,O-diglucoside malonylated; ESI-TOF; MS2; CE:25 eV; [M-H]-
Name: Genistein C,O-diglucoside malonylated
Class: Natural Product; isoflavone
Formula: C30H32O18
Exact mass: 680.158864184
SMILES: not available
InChI: not available
Instrument: micrOTOF-Q
Instrument type: ESI-TOF
Precursor m/z: 679.154
Precursor type: [M-H]-
Base peak: 431.103
m/z	relative intensity
311.0562	27
312.0659	6
341.0674	4
353.0622	4
413.0891	5
431.1012	999
432.1041	168
433.1091	25
434.1158	4
473.1128	29
474.1199	5
515.1227	456
516.1252	94
517.1332	15
518.1279	2
545.1293	5
635.1641	293
636.1668	73
637.1719	20
638.1694	3
