Mass spectrum: Quercetin; ESI-TOF; MS2; CE:25 eV; [M-H]-
Name: Quercetin
Name: Xanthaurine
Name: Sophoretin
Name: Meletin
Class: Natural Product; flavonol
Formula: C15H10O7
Exact mass: 302.04265266
SMILES: OC1=CC(O)=C2C(=O)C(O)=C(OC2(=C1))C3=CC=C(O)C(O)=C3
Instrument: micrOTOF-Q
Instrument type: ESI-TOF
Ms type: MS2
Ion mode: NEGATIVE
Ionization: ESI
Collision energy: 25 eV
Retention time: 383.336
Column name: Poroshell 120,EC-C18 2.1x100mm,2.7um
Precursor m/z: 301.032
Precursor type: [M-H]-
Base peak: 121.029
m/z	relative intensity
93.033	319
107.011	666
121.029	999
139.039	187
149.027	183
151.002	951
161.026	146
