Mass spectrum: Biochanin A glucosylglucoside dimalonylated; ESI-TOF; MS2; CE:15 eV; [M+H]+
Name: Biochanin A glucosylglucoside dimalonylated
Class: Natural Product; isoflavone
Formula: C34H36O21
Exact mass: 780.174908172
SMILES: not available
InChI: not available
Instrument: micrOTOF-Q
Instrument type: ESI-TOF
Precursor m/z: 781.549
Precursor type: [M+H]+
Base peak: 781.185
m/z	relative intensity
127.0422	1
231.0481	1
273.0591	1
285.0754	89
286.0790	10
287.0853	1
443.0812	1
447.1388	1
461.0970	1
489.1465	1
515.1179	1
533.1321	45
534.1343	9
535.1337	2
651.1978	1
695.1829	57
696.1876	15
697.1864	3
698.1899	1
737.1943	11
738.1978	3
739.2018	1
763.1735	7
764.1699	2
765.1863	1
781.1847	999
782.1874	288
783.1874	60
784.1946	5
785.1934	1
