Mass spectrum: Genistein xylosylglucoside malonylated; ESI-TOF; MS2; CE:15 eV; [M+H]+
Name: Genistein xylosylglucoside malonylated
Class: Natural Product; isoflavone
Formula: C29H30O17
Exact mass: 650.1482995
SMILES: not available
InChI: not available
Instrument: micrOTOF-Q
Instrument type: ESI-TOF
Precursor m/z: 651.15
Precursor type: [M+H]+
Base peak: 271.058
m/z	relative intensity
271.0584	999
272.0597	120
519.1075	292
520.1124	72
651.1561	284
652.1510	88
