Mass spectrum: Genistein C,O-diglucoside; ESI-TOF; MS2; CE:25 eV; [M-H]-
Name: Genistein C,O-diglucoside
Class: Natural Product; isoflavone
Formula: C27H30O15
Exact mass: 594.1584702600001
SMILES: not available
InChI: not available
Instrument: micrOTOF-Q
Instrument type: ESI-TOF
Precursor m/z: 593.151
Precursor type: [M-H]-
Base peak: 431.101
m/z	relative intensity
311.0558	120
431.1007	999
432.1035	241
473.1071	980
474.1164	222
593.1591	92
