Mass spectrum: Chrysoeriol; ESI-TOF; MS2; CE:15 eV; [M+H]+
Name: Chrysoeriol
Name: 5,7-Dihydroxy-2-(4-hydroxy-3-methoxyphenyl)-4-benzopyrone
Name: 3'-Methoxyapigenin
Class: Natural Product; flavone
Formula: C16H12O6
Exact mass: 300.06338810399996
SMILES: COC1=CC(=CC=C1(O))C2=CC(=O)C3=C(O)C=C(O)C=C3(O2)
InChI: not available
Instrument: micrOTOF-Q
Instrument type: ESI-TOF
Precursor m/z: 301.069
Precursor type: [M+H]+
Base peak: 258.044
m/z	relative intensity
152.0110	5
153.0171	112
154.0233	5
184.0455	7
188.0434	5
201.0510	9
212.0478	5
229.0475	152
230.0565	17
257.0426	63
258.0502	999
259.0555	97
260.0560	17
286.0448	95
287.0549	13
