Mass spectrum: Luteolin; ESI-TOF; MS2; CE:25 eV; [M-H]-
Name: Luteolin
Name: Luteolol
Name: Flacitran
Class: Natural Product; flavone
Formula: C15H10O6
Exact mass: 286.04773804
SMILES: OC1=CC(O)=C2C(=O)C=C(OC2(=C1))C3=CC=C(O)C(O)=C3
InChI: not available
Instrument: micrOTOF-Q
Instrument type: ESI-TOF
Precursor m/z: 285.036
Precursor type: [M-H]-
Base peak: 133.027
m/z	relative intensity
105.034	23
107.012	55
115.017	18
121.028	26
132.019	113
133.027	999
134.030	69
149.026	30
151.001	47
175.038	42
199.039	17
201.017	24
