Mass spectrum: Genistein 7-O-glucosylglucoside; ESI-TOF; MS2; CE:15 eV; [M+H]+
Name: Genistein 7-O-glucosylglucoside
Class: Natural Product; isoflavone
Formula: C27H30O15
Exact mass: 594.15847026
SMILES: OCC5OC(OC4C(O)C(O)C(OC1=CC(O)=C2C(=O)C(=COC2(=C1))C=3C=CC(O)=CC=3)OC4(CO))C(O)C(O)C5(O)
InChI: not available
Instrument: micrOTOF-Q
Instrument type: ESI-TOF
Precursor m/z: 595.166
Precursor type: [M+H]+
Base peak: 271.058
m/z	relative intensity
271.0583	999
272.0638	161
433.1133	431
595.1653	69
