Mass spectrum: 2'-Hydroxygenistein C-glucoside malonylated; ESI-TOF; MS2; CE:25 eV; [M-H]-
Name: 2'-Hydroxygenistein C-glucoside malonylated
Name: 2'Hydroxygenistein C-glucoside malonylated
Class: Natural Product; isoflavone
Formula: C24H22O14
Exact mass: 534.1009553839999
SMILES: not available
InChI: not available
Instrument: micrOTOF-Q
Instrument type: ESI-TOF
Precursor m/z: 533.079
Precursor type: [M-H]-
Base peak: 327.039
m/z	relative intensity
285.030	39
297.033	45
299.045	46
327.039	999
328.044	136
329.047	26
357.054	255
358.059	53
369.051	46
393.052	38
429.077	77
489.093	31
