Mass spectrum: Naringenin; ESI-TOF; MS2; CE:15 eV; [M+H]+
Name: Naringenin
Name: 5,7-Dihydroxy-2-(4-hydroxyphenyl)chroman-4-one
Name: Salipurol
Class: Natural Product; flavanone
Formula: C15H12O5
Exact mass: 272.068473484
SMILES: OC=1C=CC(=CC=1)C2CC(=O)C3=C(O)C=C(O)C=C3(O2)
InChI: not available
Instrument: micrOTOF-Q
Instrument type: ESI-TOF
Precursor m/z: 273.073
Precursor type: [M+H]+
Base peak: 153.016
m/z	relative intensity
77.039	14
91.053	352
92.057	34
95.048	32
97.029	34
107.051	36
119.049	276
120.050	25
123.041	20
147.042	79
153.016	999
154.020	58
