Mass spectrum: Genistein 7-O-glucosylglucoside malonylated; ESI-TOF; MS2; CE:15 eV; [M+H]+
Name: Genistein 7-O-glucosylglucoside malonylated
Class: Natural Product; isoflavone
Formula: C30H32O18
Exact mass: 680.158864184
SMILES: not available
InChI: not available
Instrument: micrOTOF-Q
Instrument type: ESI-TOF
Precursor m/z: 681.17
Precursor type: [M+H]+
Base peak: 271.06
m/z	relative intensity
271.0599	999
