Mass spectrum: Luteone 4',7-O-diglucoside; ESI-TOF; MS2; CE:15 eV; [M+H]+
Name: Luteone 4',7-O-diglucoside
Class: Natural Product; isoflavone
Formula: C32H38O16
Exact mass: 678.215985136
SMILES: CC(C)=CCC=2C(O)=C3C(=O)C(=COC3(=CC=2(OC1OC(CO)C(O)=C(O)C1(O))))C4=CC=C(C=C4(O))OC5OC(CO)C(O)=C(O)C5(O)
Instrument: micrOTOF-Q
Instrument type: ESI-TOF
Ms type: MS2
Ion mode: POSITIVE
Collision energy: 15 eV
Ionization: ESI
Retention time: 331.929
Column name: Poroshell 120,EC-C18 2.1x100mm,2.7um
Precursor m/z: 679.228
Precursor type: [M+H]+
Base peak: 517.169
m/z	relative intensity
299.0529	50
355.1181	147
356.1271	34
461.1065	667
462.1163	173
517.1738	999
518.1735	301
519.1674	55
679.2215	67
