Mass spectrum: Kaempferol-7-O-neohesperidoside; ESI-TOF; MS2; CE:25 eV; [M-H]-
Name: Kaempferol-7-O-neohesperidoside
Class: Natural Product; flavonol
Formula: C27H30O15
Exact mass: 594.1584702600001
SMILES: [H]C5(O)(C(C)OC([H])(OC4([H])(C([H])(O)C([H])(O)C([H])(CO)OC4([H])(OC1=CC(O)=C2C(=O)C(O)C(OC2(=C1))C=3C=CC(O)=CC=3)))C([H])(O)C5([H])(O))
InChI: not available
Instrument: micrOTOF-Q
Instrument type: ESI-TOF
Precursor m/z: 593.14
Precursor type: [M-H]-
Base peak: 285.035
m/z	relative intensity
284.0264	50
285.0345	999
286.0386	130
429.0722	47
473.0924	30
593.1380	593
594.1454	121
595.1500	26
