Mass spectrum: Chrysoeriol O-glucosylglucoside malonylated; ESI-TOF; MS2; CE:25 eV; [M-H]-
Name: Chrysoeriol O-glucosylglucoside malonylated
Class: Natural Product; flavone
Formula: C31H34O19
Exact mass: 710.1694288680001
SMILES: not available
InChI: not available
Instrument: micrOTOF-Q
Instrument type: ESI-TOF
Precursor m/z: 709.162
Precursor type: [M-H]-
Base peak: 299.054
m/z	relative intensity
299.0544	999
300.0611	111
605.1547	476
606.1581	125
607.1591	39
623.1639	991
624.1697	271
625.1677	71
665.1768	180
666.1799	58
667.1779	42
