Mass spectrum: Luteone diglucoside malonylated; ESI-TOF; MS2; CE:25 eV; [M-H]-
Name: Luteone diglucoside malonylated
Class: Natural Product; isoflavone
Formula: C35H40O19
Exact mass: 764.21637906
SMILES: not available
InChI: not available
Instrument: micrOTOF-Q
Instrument type: ESI-TOF
Precursor m/z: 763.212
Precursor type: [M-H]-
Base peak: 515.158
m/z	relative intensity
353.1056	85
377.1032	52
395.1177	174
396.1176	38
515.1577	999
516.1587	230
517.1622	43
539.1547	52
557.1689	553
558.1693	165
559.1720	43
581.1624	30
719.2305	66
720.2172	29
