Mass spectrum: Luteone 4',7-O-diglucoside; ESI-TOF; MS2; CE:25 eV; [M-H]-
Name: Luteone 4',7-O-diglucoside
Class: Natural Product; isoflavone
Formula: C32H38O16
Exact mass: 678.215985136
SMILES: CC(C)=CCC=2C(O)=C3C(=O)C(=COC3(=CC=2(OC1OC(CO)C(O)=C(O)C1(O))))C4=CC=C(C=C4(O))OC5OC(CO)C(O)=C(O)C5(O)
InChI: not available
Instrument: micrOTOF-Q
Instrument type: ESI-TOF
Precursor m/z: 677.211
Precursor type: [M-H]-
Base peak: 515.161
m/z	relative intensity
353.105	315
515.162	999
516.167	262
