Mass spectrum: Luteone O-glucosylglucoside; ESI-TOF; MS2; CE:25 eV; [M-H]-
Name: Luteone O-glucosylglucoside
Class: Natural Product; isoflavone
Formula: C32H38O16
Exact mass: 678.215985136
SMILES: not available
InChI: not available
Instrument: micrOTOF-Q
Instrument type: ESI-TOF
Precursor m/z: 677.208
Precursor type: [M-H]-
Base peak: 515.167
m/z	relative intensity
353.101	634
515.167	999
