Mass spectrum: Kaempferol-7-O-neohesperidoside; ESI-TOF; MS2; CE:15 eV; [M+H]+
Name: Kaempferol-7-O-neohesperidoside
Class: Natural Product; flavonol
Formula: C27H30O15
Exact mass: 594.15847026
SMILES: [H]C5(O)(C(C)OC([H])(OC4([H])(C([H])(O)C([H])(O)C([H])(CO)OC4([H])(OC1=CC(O)=C2C(=O)C(O)C(OC2(=C1))C=3C=CC(O)=CC=3)))C([H])(O)C5([H])(O))
Instrument: micrOTOF-Q
Instrument type: ESI-TOF
Ms type: MS2
Ion mode: POSITIVE
Collision energy: 15 eV
Ionization: ESI
Retention time: 293.435
Column name: Poroshell 120,EC-C18 2.1x100mm,2.7um
Precursor m/z: 595.167
Precursor type: [M+H]+
Base peak: 287.054
m/z	relative intensity
129.0546	20
287.0538	999
288.0562	120
289.0605	19
449.1085	71
450.1145	17
