Mass spectrum: 2'-Hydroxygenistein 4',7-O-diglucoside; ESI-TOF; MS2; CE:15 eV; [M+H]+
Name: 2'-Hydroxygenistein 4',7-O-diglucoside
Name: 2'-Hydroxygenistein 4',7-O-diglucoside
Name: 2'Hydroxygenistein 4',7-O-diglucoside
Class: Natural Product; isoflavone
Formula: C27H30O16
Exact mass: 610.1533848800001
SMILES: OCC5OC(OC1=CC=C(C(O)=C1)C2=COC3=CC(=CC(O)=C3(C2(=O)))OC4OC(CO)C(O)C(O)C4(O))C(O)C(O)C5(O)
Instrument: micrOTOF-Q
Instrument type: ESI-TOF
Ms type: MS2
Ion mode: POSITIVE
Collision energy: 15 eV
Ionization: ESI
Retention time: 246.395
Column name: Poroshell 120,EC-C18 2.1x100mm,2.7um
Precursor m/z: 611.164
Precursor type: [M+H]+
Base peak: 449.105
m/z	relative intensity
287.0547	30
449.1111	999
450.1136	131
451.1155	38
611.1719	35
612.1732	8
