Mass spectrum: Genistein; ESI-TOF; MS2; CE:15 eV; [M+H]+
Name: Genistein
Name: 5,7-Dihydroxy-3-(4-hydroxyphenyl)chromen-4-one
Name: 4',5,7-Trihydroxyisoflavone
Class: Natural Product; isoflavone
Formula: C15H10O5
Exact mass: 270.05282342
SMILES: OC=1C=CC(=CC=1)C2=COC3=CC(O)=CC(O)=C3(C2(=O))
InChI: not available
Instrument: micrOTOF-Q
Instrument type: ESI-TOF
Precursor m/z: 271.06
Precursor type: [M+H]+
Base peak: 153.018
m/z	relative intensity
89.039	40
91.054	938
92.056	54
97.028	37
103.054	52
107.049	145
115.054	437
116.059	59
117.068	49
119.049	184
121.029	171
127.053	56
128.059	84
129.069	43
131.050	161
135.043	64
137.026	35
141.068	471
142.075	55
144.055	95
145.055	86
147.046	54
149.024	97
150.032	54
152.057	48
153.018	999
154.023	80
155.048	94
159.046	81
165.015	43
168.058	71
169.063	314
170.067	59
172.051	36
183.041	42
187.068	38
197.060	262
198.063	40
200.044	110
213.053	49
215.069	142
243.063	59
