Mass spectrum: Chrysoeriol 8-C-glucoside; ESI-TOF; MS2; CE:25 eV; [M-H]-
Name: Chrysoeriol 8-C-glucoside
Name: Scoparin
Class: Natural Product; flavone
Formula: C22H22O11
Exact mass: 462.116211524
SMILES: COC1=CC(=CC=C1(O))C3=CC(=O)C4=C(O)C=C(O)C(C2OC(CO)C(O)C(O)C2(O))=C4(O3)
Instrument: micrOTOF-Q
Instrument type: ESI-TOF
Ms type: MS2
Ion mode: NEGATIVE
Ionization: ESI
Collision energy: 25 eV
Retention time: 278.164
Column name: Poroshell 120,EC-C18 2.1x100mm,2.7um
Precursor m/z: 461.111
Precursor type: [M-H]-
Base peak: 341.067
m/z	relative intensity
298.048	641
299.050	172
326.042	70
341.067	999
342.067	174
371.082	122
