Mass spectrum: Quercetin; ESI-TOF; MS2; CE:15 eV; [M+H]+
Name: Quercetin
Name: Xanthaurine
Name: Sophoretin
Name: Meletin
Class: Natural Product; flavonol
Formula: C15H10O7
Exact mass: 302.04265266
SMILES: OC1=CC(O)=C2C(=O)C(O)=C(OC2(=C1))C3=CC=C(O)C(O)=C3
InChI: not available
Instrument: micrOTOF-Q
Instrument type: ESI-TOF
Precursor m/z: 303.047
Precursor type: [M+H]+
Base peak: 153.017
m/z	relative intensity
91.052	32
103.053	32
105.038	45
107.043	44
109.028	125
110.036	36
111.010	52
115.054	80
117.068	62
121.028	169
123.042	61
127.051	91
128.058	50
129.069	28
131.050	79
135.040	45
137.023	441
145.064	203
153.017	999
154.020	80
155.047	233
157.060	28
161.063	33
163.038	50
165.019	90
166.024	31
173.057	142
179.033	46
183.039	121
184.048	44
187.037	94
200.044	39
201.053	280
202.054	36
211.038	48
228.041	39
229.049	367
230.045	53
239.029	43
257.040	69
285.037	29
