Mass spectrum: Kaempferol O-glucoside malonylated; ESI-TOF; MS2; CE:15 eV; [M+H]+
Name: Kaempferol O-glucoside malonylated
Class: Natural Product; flavonol
Formula: C24H22O14
Exact mass: 534.100955384
SMILES: not available
InChI: not available
Instrument: micrOTOF-Q
Instrument type: ESI-TOF
Precursor m/z: 535.102
Precursor type: [M+H]+
Base peak: 287.053
m/z	relative intensity
287.0526	999
288.0576	155
449.1082	39
535.1070	110
