Mass spectrum: Chrysoeriol O-glucosylglucoside malonylated; ESI-TOF; MS2; CE:15 eV; [M+H]+
Name: Chrysoeriol O-glucosylglucoside malonylated
Class: Natural Product; flavone
Formula: C31H34O19
Exact mass: 710.1694288680001
SMILES: not available
InChI: not available
Instrument: micrOTOF-Q
Instrument type: ESI-TOF
Precursor m/z: 711.471
Precursor type: [M+H]+
Base peak: 301.07
m/z	relative intensity
301.0703	999
302.0731	88
303.0750	16
463.1225	66
464.1294	18
625.1698	11
711.1724	184
712.1799	40
713.1765	14
