Mass spectrum: Genistein 4',7-O-diglucoside malonylated; ESI-TOF; MS2; CE:15 eV; [M+H]+
Name: Genistein 4',7-O-diglucoside malonylated
Class: Natural Product; isoflavone
Formula: C30H32O18
Exact mass: 680.158864184
SMILES: not available
InChI: not available
Instrument: micrOTOF-Q
Instrument type: ESI-TOF
Precursor m/z: 681.174
Precursor type: [M+H]+
Base peak: 433.108
m/z	relative intensity
271.0625	589
272.0700	81
433.1173	999
434.1201	258
435.1039	66
519.1165	288
520.1188	63
681.1680	272
682.1637	121
