Mass spectrum: Biochanin A O-glucoside malonylated; ESI-TOF; MS2; CE:15 eV; [M+H]+
Name: Biochanin A O-glucoside malonylated
Class: Natural Product; isoflavone
Formula: C25H24O13
Exact mass: 532.1216908279999
SMILES: not available
InChI: not available
Instrument: micrOTOF-Q
Instrument type: ESI-TOF
Precursor m/z: 533.134
Precursor type: [M+H]+
Base peak: 285.077
m/z	relative intensity
285.077	999
286.081	101
287.087	11
447.133	33
448.138	5
489.149	3
515.129	6
533.132	63
534.135	18
535.138	5
