Mass spectrum: Biochanin A O-triglucoside; ESI-TOF; MS2; CE:15 eV; [M+H]+
Name: Biochanin A O-triglucoside
Class: Natural Product; isoflavone
Formula: C34H42O20
Exact mass: 770.226943744
SMILES: not available
InChI: not available
Instrument: micrOTOF-Q
Instrument type: ESI-TOF
Precursor m/z: 771.238
Precursor type: [M+H]+
Base peak: 609.178
m/z	relative intensity
285.0765	833
447.1227	361
609.1782	999
610.1874	278
