Mass spectrum: Apigenin O-glucoside malonylated; ESI-TOF; MS2; CE:15 eV; [M+H]+
Name: Apigenin O-glucoside malonylated
Class: Natural Product; flavone
Formula: C24H22O13
Exact mass: 518.106040764
SMILES: not available
InChI: not available
Instrument: micrOTOF-Q
Instrument type: ESI-TOF
Precursor m/z: 519.115
Precursor type: [M+H]+
Base peak: 271.061
m/z	relative intensity
127.0401	6
271.0611	999
272.0649	116
273.0662	22
433.1112	11
519.1166	22
520.1175	6
