Mass spectrum: Luteolin O-glucoside malonylated; ESI-TOF; MS2; CE:15 eV; [M+H]+
Name: Luteolin O-glucoside malonylated
Class: Natural Product; flavone
Formula: C24H22O14
Exact mass: 534.1009553839999
SMILES: not available
InChI: not available
Instrument: micrOTOF-Q
Instrument type: ESI-TOF
Precursor m/z: 535.112
Precursor type: [M+H]+
Base peak: 287.055
m/z	relative intensity
287.0545	999
288.0588	116
289.0599	17
535.1096	61
536.1120	18
