Mass spectrum: Wighteone O-glucoside; ESI-TOF; MS2; CE:25 eV; [M+H]+
Name: Wighteone O-glucoside
Class: Natural Product; isoflavone
Formula: C26H28O10
Exact mass: 500.16824709599996
SMILES: not available
InChI: not available
Instrument: micrOTOF-Q
Instrument type: ESI-TOF
Precursor m/z: 501.18
Precursor type: [M+H]+
Base peak: 283.058
m/z	relative intensity
283.0583	999
339.1268	574
