Mass spectrum: Luteolin 3',7-O-diglucoside; ESI-TOF; MS2; CE:25 eV; [M-H]-
Name: Luteolin 3',7-O-diglucoside
Class: Natural Product; flavone
Formula: C27H30O16
Exact mass: 610.15338488
SMILES: OCC5OC(OC1=CC(O)=C2C(=O)C=C(OC2(=C1))C=4C=CC(OC3OC(CO)C(O)C(O)C3(O))=C(O)C=4)C(O)C(O)C5(O)
InChI: not available
Instrument: micrOTOF-Q
Instrument type: ESI-TOF
Precursor m/z: 609.147
Precursor type: [M-H]-
Base peak: 447.093
m/z	relative intensity
285.0392	24
447.0927	999
448.0968	214
449.0982	42
