Mass spectrum: Luteone O-glucoside; ESI-TOF; MS2; CE:15 eV; [M+H]+
Name: Luteone O-glucoside
Class: Natural Product; isoflavone
Formula: C26H28O11
Exact mass: 516.163161716
SMILES: not available
InChI: not available
Instrument: micrOTOF-Q
Instrument type: ESI-TOF
Precursor m/z: 517.174
Precursor type: [M+H]+
Base peak: 355.12
m/z	relative intensity
299.0561	964
300.0539	165
355.1200	999
356.1211	220
517.1766	711
518.1777	206
519.1771	65
