Mass spectrum: Apigenin 7-O-glucosylglucoside; ESI-TOF; MS2; CE:15 eV; [M+H]+
Name: Apigenin 7-O-glucosylglucoside
Class: Natural Product; flavone
Formula: C27H30O15
Exact mass: 594.15847026
SMILES: OCC5OC(OC4C(O)C(O)C(OC1=CC(O)=C2C(=O)C=C(OC2(=C1))C=3C=CC(O)=CC=3)OC4(CO))C(O)C(O)C5(O)
Instrument: micrOTOF-Q
Instrument type: ESI-TOF
Ms type: MS2
Ion mode: POSITIVE
Collision energy: 15 eV
Ionization: ESI
Retention time: 274.296
Column name: Poroshell 120,EC-C18 2.1x100mm,2.7um
Precursor m/z: 595.171
Precursor type: [M+H]+
Base peak: 271.057
m/z	relative intensity
271.0607	999
272.0628	115
273.0699	24
433.1136	74
595.1602	18
