Mass spectrum: Galangin; ESI-TOF; MS2; CE:25 eV; [M-H]-
Name: Galangin
Name: Norizalpinin, 3,5,7-trihydroxyflavone
Class: Natural Product; flavonol
Formula: C15H10O5
Exact mass: 270.05282342
SMILES: OC1=CC(O)=C2C(=O)C(O)=C(OC2(=C1))C=3C=CC=CC=3
InChI: not available
Instrument: micrOTOF-Q
Instrument type: ESI-TOF
Precursor m/z: 269.043
Precursor type: [M-H]-
Base peak: 171.043
m/z	relative intensity
101.041	244
108.020	738
115.055	350
117.035	346
129.036	183
139.054	313
141.065	359
143.049	992
145.033	533
154.039	188
155.048	298
167.046	628
169.064	625
171.043	999
182.033	191
195.042	839
197.057	263
199.035	188
211.038	834
212.043	209
213.054	299
223.036	510
227.033	235
239.035	350
252.039	292
269.042	526
