Mass spectrum: 2'-Hydroxygenistein 8-C-glucoside; ESI-TOF; MS2; CE:25 eV; [M-H]-
Name: 2'-Hydroxygenistein 8-C-glucoside
Name: 2'-Hydroxygenistein-8-C-glucoside
Class: Natural Product; isoflavone
Formula: C21H20O11
Exact mass: 448.10056146
SMILES: OCC1OC(C(O)C(O)C1(O))C=3C(O)=CC(O)=C2C(=O)C(=COC2=3)C4=CC=C(O)C=C4(O)
InChI: not available
Instrument: micrOTOF-Q
Instrument type: ESI-TOF
Precursor m/z: 447.097
Precursor type: [M-H]-
Base peak: 327.047
m/z	relative intensity
284.0341	35
285.0447	83
297.0398	160
298.0444	54
299.0524	139
327.0510	999
328.0564	157
329.0515	28
339.0540	51
357.0629	388
358.0656	88
359.0672	30
369.0602	53
