Mass spectrum: Biochanin A O-diglucoside malonylated; ESI-TOF; MS2; CE:25 eV; [M-H]-
Name: Biochanin A O-diglucoside malonylated
Class: Natural Product; isoflavone
Formula: C31H34O18
Exact mass: 694.174514248
SMILES: not available
InChI: not available
Instrument: micrOTOF-Q
Instrument type: ESI-TOF
Precursor m/z: 649.177
Precursor type: [M-H]-
Base peak: 283.059
m/z	relative intensity
283.059	999
