Mass spectrum: 2'-Hydroxygenistein-7-O-glucoside; ESI-TOF; MS2; CE:25 eV; [M-H]-
Name: 2'-Hydroxygenistein-7-O-glucoside
Class: Natural Product; isoflavone
Formula: C21H20O11
Exact mass: 448.10056146
SMILES: OCC4OC(OC1=CC(O)=C2C(=O)C(=COC2(=C1))C3=CC=C(O)C=C3(O))C(O)C(O)C4(O)
InChI: not available
Instrument: micrOTOF-Q
Instrument type: ESI-TOF
Precursor m/z: 447.096
Precursor type: [M-H]-
Base peak: 412.828
m/z	relative intensity
284.031	880
285.038	906
412.828	999
413.820	275
414.816	239
