Mass spectrum: Genistein C-glucoside malonylated; ESI-TOF; MS2; CE:15 eV; [M+H]+
Name: Genistein C-glucoside malonylated
Class: Natural Product; isoflavone
Formula: C24H22O13
Exact mass: 518.106040764
SMILES: not available
InChI: not available
Instrument: micrOTOF-Q
Instrument type: ESI-TOF
Precursor m/z: 519.118
Precursor type: [M+H]+
Base peak: 519.109
m/z	relative intensity
273.0746	7
283.0597	23
295.0627	20
313.0706	71
314.0762	7
337.0687	12
349.0751	17
351.0904	37
361.0732	12
367.0846	165
368.0806	36
369.0932	16
379.0822	196
380.0885	41
381.0894	7
397.0941	696
398.0981	89
399.1009	21
415.1046	61
416.1114	13
423.0729	19
433.1139	13
439.1057	40
440.1206	9
453.0742	7
457.1156	110
458.1199	27
459.1141	7
475.1278	47
476.1295	11
483.1006	21
484.1057	7
501.1047	285
502.1094	61
503.1218	12
519.1148	999
520.1192	149
521.1199	42
