Mass spectrum: Kaempferol-7-O-glucoside; ESI-TOF; MS2; CE:25 eV; [M-H]-
Name: Kaempferol-7-O-glucoside
Name: Populnin
Class: Natural Product; flavonol
Formula: C21H20O11
Exact mass: 448.10056146
SMILES: OCC4OC(OC=1C=C(O)C=2C(=O)C(O)=C(OC=2(C=1))C3=CC=C(O)C=C3)C(O)C(O)C4(O)
Instrument: micrOTOF-Q
Instrument type: ESI-TOF
Ms type: MS2
Ion mode: NEGATIVE
Ionization: ESI
Collision energy: 25 eV
Retention time: 305.628
Column name: Poroshell 120,EC-C18 2.1x100mm,2.7um
Precursor m/z: 447.095
Precursor type: [M-H]-
Base peak: 285.033
m/z	relative intensity
107.009	28
151.001	296
152.005	21
164.009	14
213.052	14
229.047	12
241.048	25
257.044	227
258.047	35
284.031	708
285.037	999
286.043	125
287.043	21
412.825	32
413.821	11
447.095	180
448.097	50
