Mass spectrum: Luteolin 7-O-glucoside; ESI-TOF; MS2; CE:15 eV; [M+H]+
Name: Luteolin 7-O-glucoside
Name: Luteolin-7-O-glucoside
Name: 7-O-Beta-D-Glucosyl-5,7,3',4'-tetrahydroxyflavone
Name: Cynaroside
Name: Glucoluteolin
Name: Luteoloside
Class: Natural Product; flavone
Formula: C21H20O11
Exact mass: 448.10056146
SMILES: OCC4OC(OC1=CC(O)=C2C(=O)C=C(OC2(=C1))C=3C=CC(O)=C(O)C=3)C(O)C(O)C4(O)
InChI: not available
Instrument: micrOTOF-Q
Instrument type: ESI-TOF
Precursor m/z: 449.109
Precursor type: [M+H]+
Base peak: 287.055
m/z	relative intensity
287.055	999
288.059	111
289.062	15
449.105	13
450.111	3
