Mass spectrum: 2'-Hydroxygenistein C-glucoside malonylated; ESI-TOF; MS2; CE:15 eV; [M+H]+
Name: 2'-Hydroxygenistein C-glucoside malonylated
Name: 2'Hydroxygenistein C-glucoside malonylated
Class: Natural Product; isoflavone
Formula: C24H22O14
Exact mass: 534.1009553839999
SMILES: not available
InChI: not available
Instrument: micrOTOF-Q
Instrument type: ESI-TOF
Precursor m/z: 535.103
Precursor type: [M+H]+
Base peak: 535.098
m/z	relative intensity
299.0516	36
329.0687	75
367.0825	41
383.0763	118
395.0787	120
413.0833	364
414.0909	105
431.0931	36
439.0607	40
455.0894	30
473.1002	87
474.1027	42
491.1124	28
517.0952	295
518.0959	57
535.1041	999
536.1086	193
537.1050	57
