Mass spectrum: Luteolin 4'-O-glucoside; ESI-TOF; MS2; CE:15 eV; [M+H]+
Name: Luteolin 4'-O-glucoside
Name: 4',5,7-TetrahydroxyFLAVone-4'-GLUCOSide
Name: Luteolin-4'-O-glucoside
Name: 3',4',5,7-TetrahydroxyFLAVone-4'-GLUCOSide
Class: Natural Product; flavone
Formula: C21H20O11
Exact mass: 448.10056146
SMILES: OCC4OC(OC=1C=CC(=CC=1(O))C2=CC(=O)C3=C(O)C=C(O)C=C3(O2))C(O)C(O)C4(O)
InChI: not available
Instrument: micrOTOF-Q
Instrument type: ESI-TOF
Precursor m/z: 449.109
Precursor type: [M+H]+
Base peak: 287.054
m/z	relative intensity
287.0542	999
288.0556	176
449.1108	327
450.1118	66
