Mass spectrum: Apigenin O-glucoside malonylated; ESI-TOF; MS2; CE:15 eV; [M+H]+
Name: Apigenin O-glucoside malonylated
Class: Natural Product; flavone
Formula: C24H22O13
Exact mass: 518.106040764
SMILES: not available
InChI: not available
Instrument: micrOTOF-Q
Instrument type: ESI-TOF
Precursor m/z: 519.118
Precursor type: [M+H]+
Base peak: 271.06
m/z	relative intensity
271.0600	999
272.0630	97
273.0683	14
519.1173	83
520.1298	14
521.1193	5
