Mass spectrum: 2'-Hydroxygenistein C-glucoside malonylated; ESI-TOF; MS2; CE:25 eV; [M-H]-
Name: 2'-Hydroxygenistein C-glucoside malonylated
Name: 2'Hydroxygenistein C-glucoside malonylated
Class: Natural Product; isoflavone
Formula: C24H22O14
Exact mass: 534.1009553839999
SMILES: not available
InChI: not available
Instrument: micrOTOF-Q
Instrument type: ESI-TOF
Precursor m/z: 533.093
Precursor type: [M-H]-
Base peak: 327.051
m/z	relative intensity
285.038	31
297.046	41
299.055	56
327.051	999
328.056	143
329.064	26
339.050	25
357.062	261
358.064	65
365.067	14
369.063	52
393.069	29
429.081	89
430.084	19
447.094	15
489.106	27
