Mass spectrum: Luteolin O-glucoside malonylated; ESI-TOF; MS2; CE:15 eV; [M+H]+
Name: Luteolin O-glucoside malonylated
Class: Natural Product; flavone
Formula: C24H22O14
Exact mass: 534.100955384
SMILES: not available
InChI: not available
Instrument: micrOTOF-Q
Instrument type: ESI-TOF
Precursor m/z: 535.112
Precursor type: [M+H]+
Base peak: 287.054
m/z	relative intensity
127.0441	3
287.0544	999
288.0581	108
289.0616	15
449.1083	13
450.1135	3
491.1232	5
492.1277	3
517.0998	3
535.1100	189
536.1120	34
537.1191	9
