Mass spectrum: Chrysoeriol O-glucosylglucoside malonylated; ESI-TOF; MS2; CE:25 eV; [M-H]-
Name: Chrysoeriol O-glucosylglucoside malonylated
Class: Natural Product; flavone
Formula: C31H34O19
Exact mass: 710.1694288680001
SMILES: not available
InChI: not available
Instrument: micrOTOF-Q
Instrument type: ESI-TOF
Precursor m/z: 709.433
Precursor type: [M-H]-
Base peak: 665.176
m/z	relative intensity
284.0302	12
285.0363	9
299.0535	875
300.0587	98
301.0604	20
485.1104	19
503.1196	33
605.1577	37
606.1701	10
623.1658	132
624.1736	39
625.1661	10
665.1756	999
666.1758	228
667.1847	54
668.1794	15
