Mass spectrum: Biochanin A glucosylglucoside malonylated; ESI-TOF; MS2; CE:15 eV; [M+H]+
Name: Biochanin A glucosylglucoside malonylated
Class: Natural Product; isoflavone
Formula: C31H34O18
Exact mass: 694.1745142479999
SMILES: not available
InChI: not available
Instrument: micrOTOF-Q
Instrument type: ESI-TOF
Precursor m/z: 695.474
Precursor type: [M+H]+
Base peak: 285.076
m/z	relative intensity
231.0501	6
285.0756	999
286.0804	123
287.0790	13
447.1352	46
448.1346	10
609.1935	11
695.1830	161
696.1841	43
697.1956	10
