Mass spectrum: Luteone diglucoside malonylated; ESI-TOF; MS2; CE:25 eV; [M-H]-
Name: Luteone diglucoside malonylated
Class: Natural Product; isoflavone
Formula: C35H40O19
Exact mass: 764.21637906
SMILES: not available
InChI: not available
Instrument: micrOTOF-Q
Instrument type: ESI-TOF
Precursor m/z: 719.22
Precursor type: [M-H]-
Base peak: 515.164
m/z	relative intensity
515.1644	999
