Mass spectrum: Genistein C,O-diglucoside; ESI-TOF; MS2; CE:15 eV; [M+H]+
Name: Genistein C,O-diglucoside
Class: Natural Product; isoflavone
Formula: C27H30O15
Exact mass: 594.15847026
SMILES: not available
InChI: not available
Instrument: micrOTOF-Q
Instrument type: ESI-TOF
Precursor m/z: 595.168
Precursor type: [M+H]+
Base peak: 433.112
m/z	relative intensity
271.0620	44
397.0917	105
398.0958	29
415.1033	357
416.1068	65
433.1124	999
434.1172	165
435.1210	35
595.1671	705
596.1685	144
597.1751	42
