Mass spectrum: Apigenin; ESI-TOF; MS2; CE:15 eV; [M+H]+
Name: Apigenin
Name: 4',5,7-Trihydroxyflavone
Name: Spigenin
Class: Natural Product; flavone
Formula: C15H10O5
Exact mass: 270.05282342
SMILES: OC=1C=CC(=CC=1)C2=CC(=O)C3=C(O)C=C(O)C=C3(O2)
InChI: not available
Instrument: micrOTOF-Q
Instrument type: ESI-TOF
Precursor m/z: 271.057
Precursor type: [M+H]+
Base peak: 153.017
m/z	relative intensity
91.053	300
92.057	22
97.029	22
111.009	19
115.054	65
119.049	321
120.053	21
121.028	148
125.021	21
131.049	27
141.070	60
145.028	208
146.033	27
153.017	999
154.021	64
155.046	38
163.037	49
168.054	20
169.059	29
171.029	19
197.056	45
229.047	17
242.059	16
243.062	28
271.056	93
272.061	18
