Mass spectrum: Galangin; ESI-TOF; MS2; CE:15 eV; [M+H]+
Name: Galangin
Name: Norizalpinin, 3,5,7-trihydroxyflavone
Class: Natural Product; flavonol
Formula: C15H10O5
Exact mass: 270.05282342
SMILES: OC1=CC(O)=C2C(=O)C(O)=C(OC2(=C1))C=3C=CC=CC=3
InChI: not available
Instrument: micrOTOF-Q
Instrument type: ESI-TOF
Precursor m/z: 271.061
Precursor type: [M+H]+
Base peak: 153.018
m/z	relative intensity
91.055	141
105.033	440
115.055	128
129.064	69
131.046	95
137.021	130
141.070	378
142.069	50
145.066	82
153.018	999
154.026	58
165.018	174
168.057	75
169.066	136
197.059	319
198.059	63
213.054	127
242.064	111
271.063	505
272.065	135
