Mass spectrum: 2'-Hydroxygenistein 7'-O-glucosylglucoside; ESI-TOF; MS2; CE:15 eV; [M+H]+
Name: 2'-Hydroxygenistein 7'-O-glucosylglucoside
Class: Natural Product; isoflavone
Formula: C27H30O16
Exact mass: 610.1533848800001
SMILES: not available
InChI: not available
Instrument: micrOTOF-Q
Instrument type: ESI-TOF
Precursor m/z: 611.162
Precursor type: [M+H]+
Base peak: 449.101
m/z	relative intensity
287.0566	37
449.1078	999
450.1117	163
451.1152	29
611.1610	39
