Mass spectrum: Apigenin O-glucoside malonylated; ESI-TOF; MS2; CE:25 eV; [M-H]-
Name: Apigenin O-glucoside malonylated
Class: Natural Product; flavone
Formula: C24H22O13
Exact mass: 518.106040764
SMILES: not available
InChI: not available
Instrument: micrOTOF-Q
Instrument type: ESI-TOF
Precursor m/z: 473.105
Precursor type: [M-H]-
Base peak: 269.046
m/z	relative intensity
268.037	356
269.046	999
434.808	562
473.113	399
