Mass spectrum: $species; $instrumentType; $msLevel; CE: $ceValue; R=$resolution; $precursorAdduct
Name: $species
Class: Natural Product; Lipid Standard
Formula: $formula
Exact mass: $calculatedMass
SMILES: $smiles
InChI: $inchi
Instrument: $instrument
Instrument type: $instrumentType
Ms type: MS$msLevel
Ion mode: $polarity
Ionization: $ionization
Fragmentation mode: $precursorActivationType
Collision energy: $precursorCollisionEnergy $precursorCollisionEnergyUnit
Column name: $columnName
Base peak: $basePeakMz
Precursor m/z: $precursorMz[0]
Precursor type: $precursorAdduct
m/z	relative intensity	assigned
$foundMass	$relativeIntensity	$fragment
77.0387	14	C6H5+
92.0495	16	C6H6N+
93.0573	18	C6H7N+
94.0651	139	C6H8N+
95.0491	11	C6H7O+
105.0447	17	C6H5N2+
110.0603	4	C6H8NO+
120.0444	41	C7H6NO+
121.0284	30	C7H5O2+
138.055	999	C7H8NO2+
