Mass spectrum: TG 47:3; LC-ESI-QTOF; MS2
Name: TG 47:3
Class:  TAG
Formula: C50H90O6
Exact mass: 787.264
SMILES: CCCCCCCCCCCC(=O)OCC(COC(=O)CCCCCCCC\C=C/C=C\CCCCC)OC(=O)CCCCC\C=C/CCCCCCCCC
InChI: InChI=1S/C50H90O6/c1-4-7-10-13-16-19-21-23-25-27-28-31-34-37-40-43-49(52)55-46-47(45-54-48(51)42-39-36-33-30-18-15-12-9-6-3)56-50(53)44-41-38-35-32-29-26-24-22-20-17-14-11-8-5-2/h16,19,21,23,26,29,47H,4-15,17-18,20,22,24-25,27-28,30-46H2,1-3H3/b19-16-,23-21-,29-26-
Instrument: AB Sciex TripleTOF 5600+ system (Q-TOF) equipped with a DuoSpray ion source
Instrument type: LC-ESI-QTOF
Ms type: MS2
Ion mode: POSITIVE
Collision energy: 45V
Column name: Acquity UPLC Peptide BEH C18 column (50*2.1 mm; 1.7 um; 130A)(Waters Co.,Milford, MA, USA)
Retention time: 13.78881
Precursor type: [M+NH4]+
Precursor m/z: 804.7059
Intensity: 8353
m/z	relative intensity
81.069	73
83.085	43
85.1	31
93.07	19
95.085	80
97.102	21
107.085	16
109.102	66
121.099	48
123.118	51
135.117	36
137.134	16
163.147	25
169.16	24
183.174	23
191.18	16
197.188	19
205.192	18
211.206	18
221.192	18
237.219	28
245.227	31
251.242	24
261.226	16
263.232	59
263.244	48
265.249	18
271.227	8
283.232	7
285.246	18
299.255	24
311.255	36
311.271	9
313.273	33
317.245	6
319.259	8
325.273	13
337.269	17
337.29	8
339.305	10
467.408	9
477.378	18
481.419	16
482.426	16
491.397	21
491.419	31
505.423	223
505.448	69
507.438	999
509.458	83
517.417	16
519.42	40
519.44	245
521.453	94
522.528	19
531.441	145
533.45	481
535.472	70
535.493	28
545.435	84
545.461	250
547.47	362
549.485	135
559.454	120
559.478	179
561.462	38
561.485	148
561.507	50
563.494	31
573.486	275
573.522	20
575.487	38
575.508	115
587.469	21
587.492	120
587.511	135
589.519	29
601.516	187
603.528	31
629.551	20
685.632	3
745.63	5
769.652	6
779.701	3
786.771	7
787.659	31
787.684	26
787.71	16
804.602	4
804.662	21
804.695	101
804.721	61
804.748	23
