Mass spectrum: PG 30:0; LC-ESI-QTOF; MS2
Name: PG 30:0
Class:  PG
Formula: C36H71O10P
Exact mass: 694.93
SMILES: CCCCCCCCCCCCCCCC(=O)OC(COC(=O)CCCCCCCCCCCCC)COP(O)(=O)OCC(O)CO
InChI: InChI=1S/C36H71O10P/c1-3-5-7-9-11-13-15-16-18-20-22-24-26-28-36(40)46-34(32-45-47(41,42)44-30-33(38)29-37)31-43-35(39)27-25-23-21-19-17-14-12-10-8-6-4-2/h33-34,37-38H,3-32H2,1-2H3,(H,41,42)
Instrument: AB Sciex TripleTOF 5600+ system (Q-TOF) equipped with a DuoSpray ion source
Instrument type: LC-ESI-QTOF
Ms type: MS2
Ion mode: POSITIVE
Collision energy: 45V
Column name: Acquity UPLC Peptide BEH C18 column (50*2.1 mm; 1.7 um; 130A)(Waters Co.,Milford, MA, USA)
Retention time: 8.174423
Precursor type: [M+NH4]+
Precursor m/z: 712.5107
Intensity: 2807
m/z	relative intensity
81.067	8
83.088	19
85.105	17
95.084	27
97.097	5
109.102	16
123.121	5
165.163	5
211.204	27
221.218	5
239.236	32
285.241	30
313.274	13
500.814	5
506.879	5
523.146	5
523.468	999
599.421	22
