Mass spectrum: TG 56:9; LC-ESI-QTOF; MS2
Name: TG 56:9
Class:  TAG
Formula: C59H96O6
Exact mass: 901.4110000000001
SMILES: CCCCC\C=C/C=C\CCCCCCCCC(=O)OCC(COC(=O)CCC\C=C/C\C=C/C\C=C/C\C=C/C\C=C/CC)OC(=O)CCCCCCCC\C=C/C=C\CCCCC
InChI: InChI=1S/C59H96O6/c1-4-7-10-13-16-19-22-25-28-29-32-34-37-40-43-46-49-52-58(61)64-55-56(65-59(62)53-50-47-44-41-38-35-31-27-24-21-18-15-12-9-6-3)54-63-57(60)51-48-45-42-39-36-33-30-26-23-20-17-14-11-8-5-2/h7,10,16-21,23-28,32,34,40,43,56H,4-6,8-9,11-15,22,29-31,33,35-39,41-42,44-55H2,1-3H3/b10-7-,19-16-,20-17-,21-18-,26-23-,27-24-,28-25-,34-32-,43-40-
Instrument: AB Sciex TripleTOF 5600+ system (Q-TOF) equipped with a DuoSpray ion source
Instrument type: LC-ESI-QTOF
Ms type: MS2
Ion mode: POSITIVE
Collision energy: 45V
Column name: Acquity UPLC Peptide BEH C18 column (50*2.1 mm; 1.7 um; 130A)(Waters Co.,Milford, MA, USA)
Retention time: 13.88151
Precursor type: [M+NH4]+
Precursor m/z: 918.7536
Intensity: 7931
m/z	relative intensity
79.054	12
81.069	28
83.085	7
91.053	14
93.069	14
95.085	25
97.1	5
105.069	12
107.084	12
109.1	13
117.07	12
119.086	15
121.1	15
123.115	13
129.073	4
131.083	14
133.1	11
135.114	10
137.135	8
143.086	4
145.103	9
147.115	5
149.134	12
155.083	4
157.1	8
159.116	17
161.133	18
163.148	9
169.1	7
171.117	10
173.134	17
175.11	4
175.149	22
177.164	4
183.118	9
185.13	19
187.149	22
189.127	4
189.163	7
197.134	14
199.145	8
199.156	5
201.13	4
201.164	82
203.143	5
203.179	7
211.15	11
213.164	7
215.145	5
225.162	8
239.185	4
241.195	4
245.226	10
257.226	4
261.22	7
263.236	53
265.19	4
265.255	4
267.21	66
269.228	6
275.184	2
283.205	8
283.241	2
285.221	79
287.235	2
293.228	4
301.261	1
311.24	4
311.255	6
317.243	3
319.26	6
319.275	4
323.244	2
335.249	6
335.263	8
337.274	156
338.276	1
339.287	10
339.302	8
341.243	5
341.259	3
344.988	2
357.241	2
359.262	3
391.285	6
391.332	1
393.307	2
459.352	2
461.37	1
497.363	1
499.381	1
501.396	2
508.997	1
511.38	2
513.392	2
519.455	2
521.442	2
525.482	3
529.434	4
537.419	1
539.416	1
541.427	3
543.443	3
545.45	1
547.444	4
547.466	7
569.465	2
571.481	4
573.491	111
573.534	2
574.488	4
575.517	2
593.461	1
595.45	2
597.464	4
597.491	21
597.525	2
597.62	3
597.652	2
598.497	2
599.504	999
600.502	23
600.528	7
601.523	11
601.549	3
603.529	2
615.492	1
617.486	2
617.513	6
619.464	15
619.49	8
619.515	4
619.563	1
621.487	386
622.484	8
622.503	3
623.489	10
623.512	27
623.554	1
637.474	3
639.497	4
647.51	27
648.505	2
737.591	1
761.629	1
777.609	2
779.614	1
789.664	1
791.604	1
793.63	1
797.617	4
797.644	32
797.668	42
797.695	26
798.641	2
798.691	2
817.656	2
819.634	1
823.685	1
831.633	1
836.662	4
836.692	8
836.732	3
879.715	7
879.755	5
879.816	1
883.68	2
883.71	5
883.739	5
883.765	2
898.916	1
901.659	1
901.701	24
901.725	61
901.754	50
902.738	2
902.781	1
915.87	1
918.642	1
918.753	297
918.846	4
919.764	17
919.802	2
