Mass spectrum: TG 56:6; LC-ESI-QTOF; MS2
Name: TG 56:6
Class:  TAG
Formula: C59H102O6
Exact mass: 907.4590000000001
SMILES: CCCCCCCCCCCCCCCC(=O)OCC(COC(=O)CCCCC\C=C/C\C=C/C\C=C/C\C=C/C\C=C/CC)OC(=O)CCCCCCCCC\C=C/CCCCCC
InChI: InChI=1S/C59H102O6/c1-4-7-10-13-16-19-22-25-27-28-29-30-32-34-37-40-43-46-49-52-58(61)64-55-56(54-63-57(60)51-48-45-42-39-36-33-24-21-18-15-12-9-6-3)65-59(62)53-50-47-44-41-38-35-31-26-23-20-17-14-11-8-5-2/h7,10,16,19-20,23,25,27,29-30,34,37,56H,4-6,8-9,11-15,17-18,21-22,24,26,28,31-33,35-36,38-55H2,1-3H3/b10-7-,19-16-,23-20-,27-25-,30-29-,37-34-
Instrument: AB Sciex TripleTOF 5600+ system (Q-TOF) equipped with a DuoSpray ion source
Instrument type: LC-ESI-QTOF
Ms type: MS2
Ion mode: POSITIVE
Collision energy: 45V
Column name: Acquity UPLC Peptide BEH C18 column (50*2.1 mm; 1.7 um; 130A)(Waters Co.,Milford, MA, USA)
Retention time: 14.49284
Precursor type: [M+NH4]+
Precursor m/z: 924.7963
Intensity: 6730
m/z	relative intensity
79.053	6
81.069	17
83.084	6
91.052	12
93.069	7
95.083	21
97.099	7
105.069	4
107.084	4
109.101	10
111.116	5
117.07	5
119.085	16
121.1	12
123.116	11
131.084	8
133.1	10
135.114	10
145.102	4
149.129	5
157.1	7
159.118	4
161.134	6
163.149	8
165.162	5
171.115	11
173.131	12
175.113	4
175.146	12
177.163	7
185.132	13
187.147	10
189.127	4
189.164	17
191.178	7
199.148	9
201.163	16
203.141	4
203.179	69
213.165	7
215.179	6
227.18	6
241.194	4
245.228	7
247.241	12
259.238	6
263.231	6
265.254	39
269.227	77
271.23	2
271.249	2
282.28	1
285.216	3
285.249	2
287.236	98
289.254	2
291.269	2
295.243	6
297.253	4
297.274	2
307.244	1
311.252	2
313.248	6
313.26	7
313.276	9
313.29	3
315.267	9
315.281	5
321.274	4
337.273	14
339.289	168
340.303	2
341.298	12
341.321	4
343.262	5
359.265	1
361.258	1
361.28	2
371.294	4
393.299	8
433.002	1
439.372	1
461.364	2
501.403	3
527.41	2
533.469	2
549.484	2
551.467	2
551.486	3
575.473	5
575.504	62
575.539	4
576.5	2
577.491	7
577.516	37
577.533	20
579.525	2
597.486	3
599.504	3
601.496	7
601.522	14
601.552	2
601.628	2
601.659	2
603.534	999
604.536	20
604.567	5
623.489	23
623.51	22
623.567	2
625.517	403
625.583	2
626.508	7
626.541	4
627.514	19
627.536	60
627.556	10
629.544	3
641.506	2
643.531	4
651.526	79
651.55	27
652.552	3
653.546	3
781.624	0
783.65	1
793.689	0
795.625	1
795.695	0
797.729	0
809.705	0
823.679	1
823.731	0
842.708	3
842.755	1
855.738	0
856.711	0
865.733	0
889.724	3
889.773	6
889.812	2
905.726	8
905.748	9
905.774	7
905.828	1
907.713	4
907.757	67
907.784	44
907.803	26
908.759	3
908.802	2
915.705	2
924.728	4
924.799	245
924.863	8
925.792	10
925.836	3
