Mass spectrum: TG 56:8; LC-ESI-QTOF; MS2
Name: TG 56:8
Class:  TAG
Formula: C59H98O6
Exact mass: 903.427
SMILES: CCCCCC\C=C/CCCCCCCCCC(=O)OCC(COC(=O)CCC\C=C/C\C=C/C\C=C/C\C=C/C\C=C/CC)OC(=O)CCCCCCCC\C=C/C=C\CCCCC
InChI: InChI=1S/C59H98O6/c1-4-7-10-13-16-19-22-25-28-29-32-34-37-40-43-46-49-52-58(61)64-55-56(65-59(62)53-50-47-44-41-38-35-31-27-24-21-18-15-12-9-6-3)54-63-57(60)51-48-45-42-39-36-33-30-26-23-20-17-14-11-8-5-2/h7,10,16,18-21,23-25,27-28,32,34,40,43,56H,4-6,8-9,11-15,17,22,26,29-31,33,35-39,41-42,44-55H2,1-3H3/b10-7-,19-16-,21-18-,23-20-,27-24-,28-25-,34-32-,43-40-
Instrument: AB Sciex TripleTOF 5600+ system (Q-TOF) equipped with a DuoSpray ion source
Instrument type: LC-ESI-QTOF
Ms type: MS2
Ion mode: POSITIVE
Collision energy: 45V
Column name: Acquity UPLC Peptide BEH C18 column (50*2.1 mm; 1.7 um; 130A)(Waters Co.,Milford, MA, USA)
Retention time: 14.04436
Precursor type: [M+NH4]+
Precursor m/z: 920.7681
Intensity: 183146
m/z	relative intensity
71.047	0
71.084	2
77.037	4
79.053	16
81.069	34
83.048	0
83.084	13
85.064	2
85.101	2
91.054	23
93.069	18
95.047	0
95.085	38
97.062	2
97.069	1
97.101	9
99.079	2
103.052	1
105.068	12
107.084	15
109.1	24
111.079	3
111.115	5
113.095	1
115.053	2
117.069	15
119.084	18
121.1	29
123.079	1
123.116	14
125.094	3
125.132	1
127.11	1
128.06	2
129.068	8
131.085	23
133.1	16
135.08	1
135.116	22
137.101	1
137.132	5
139.112	1
141.068	3
142.075	0
143.085	7
145.1	17
147.083	1
147.116	11
149.095	2
149.131	14
151.111	0
151.147	4
153.127	3
155.083	4
157.1	11
159.116	25
161.096	3
161.131	19
163.11	3
163.147	15
165.126	1
165.162	3
165.171	0
167.085	1
167.143	2
169.101	9
171.116	17
173.097	2
173.132	28
175.108	2
175.148	21
177.126	2
177.162	4
179.142	1
179.182	0
181.101	1
181.158	1
182.108	1
183.115	13
185.131	27
187.109	1
187.118	1
187.148	25
189.126	4
189.163	10
191.14	1
191.18	1
193.157	1
195.114	2
197.131	16
199.11	0
199.146	19
201.124	2
201.163	96
203.142	6
203.178	6
205.157	0
205.19	1
207.173	0
209.133	2
211.146	16
213.126	1
213.163	7
215.143	6
215.178	3
217.157	2
217.194	1
219.173	1
219.211	1
223.147	2
225.163	13
227.139	0
227.178	4
229.158	3
229.194	1
235.17	1
237.158	0
237.173	0
237.221	2
239.179	7
239.232	1
241.16	1
241.194	5
243.172	2
243.184	0
243.21	7
245.225	13
247.241	12
251.177	1
253.198	0
255.209	1
257.187	3
257.202	0
257.224	6
257.237	1
261.219	3
263.235	39
265.195	3
265.252	41
267.21	92
268.216	0
269.227	5
271.167	0
281.192	0
282.281	0
283.204	6
283.242	0
285.22	100
286.222	0
287.234	3
289.251	0
293.225	4
295.204	0
295.244	1
299.193	0
301.206	0
301.224	0
301.243	0
301.255	0
303.225	0
305.23	0
311.235	9
311.263	2
313.253	1
313.27	5
317.244	1
319.261	9
321.277	2
323.233	0
323.285	0
335.242	0
335.258	3
337.273	144
338.277	0
339.289	155
341.245	5
341.299	0
343.26	1
353.301	0
357.239	2
359.256	3
363.291	0
365.271	0
367.27	1
391.261	0
391.28	4
391.293	1
391.303	0
393.274	0
393.3	6
401.36	0
407.335	0
419.317	0
425.339	0
437.382	0
439.359	0
449.364	0
461.351	0
463.363	0
463.383	0
465.404	0
487.366	0
497.354	0
499.38	1
501.403	1
511.36	0
511.388	0
513.39	0
513.403	1
525.397	1
527.392	0
527.479	1
527.496	0
529.44	4
531.438	1
531.461	1
539.397	0
539.424	0
541.414	0
545.488	0
547.439	7
547.463	3
549.44	0
549.472	2
551.402	0
553.412	1
565.466	0
573.459	2
573.485	12
573.51	1
575.501	104
576.491	1
576.513	2
590.519	0
593.46	0
597.488	2
599.479	4
599.502	25
599.618	0
599.637	1
599.654	1
601.384	0
601.515	999
602.457	0
602.484	2
602.523	32
619.455	0
619.483	1
619.523	1
619.547	1
621.486	309
622.487	4
623.5	268
624.487	1
624.51	3
625.502	5
625.52	9
625.554	1
637.472	0
637.489	1
639.476	1
639.501	3
639.523	1
641.513	3
647.471	1
647.502	17
649.518	16
650.522	1
683.562	0
697.599	0
709.597	0
735.587	0
737.622	0
739.584	0
749.624	0
751.592	0
753.607	0
763.61	0
767.634	0
775.633	0
777.661	0
779.61	0
779.632	0
781.634	0
791.648	0
793.6	0
793.634	0
793.67	0
795.64	0
805.629	0
805.672	0
807.624	0
807.677	0
819.661	0
819.697	0
821.65	0
821.673	0
827.702	0
833.635	0
833.659	1
833.684	0
835.684	0
838.672	0
838.701	0
847.679	0
885.697	2
885.736	12
885.781	0
886.724	0
892.748	0
901.692	0
901.709	0
901.744	1
901.786	0
903.743	110
904.719	0
904.747	1
909.766	0
917.891	0
920.767	168
921.721	0
921.768	4
921.823	0
