Mass spectrum: TG 56:6; LC-ESI-QTOF; MS2
Name: TG 56:6
Class:  TAG
Formula: C59H102O6
Exact mass: 907.4590000000001
SMILES: CCCCCCCC\C=C/C\C=C/C\C=C/CCCC(=O)OCC(COC(=O)CCCCCCCCC\C=C/CCCCCC)OC(=O)CCCCCCCC\C=C/C=C\CCCCC
InChI: InChI=1S/C59H102O6/c1-4-7-10-13-16-19-22-25-28-29-32-34-37-40-43-46-49-52-58(61)64-55-56(65-59(62)53-50-47-44-41-38-35-31-27-24-21-18-15-12-9-6-3)54-63-57(60)51-48-45-42-39-36-33-30-26-23-20-17-14-11-8-5-2/h18,20-21,23-25,27-28,32,34,40,43,56H,4-17,19,22,26,29-31,33,35-39,41-42,44-55H2,1-3H3/b21-18-,23-20-,27-24-,28-25-,34-32-,43-40-
Instrument: AB Sciex TripleTOF 5600+ system (Q-TOF) equipped with a DuoSpray ion source
Instrument type: LC-ESI-QTOF
Ms type: MS2
Ion mode: POSITIVE
Collision energy: 45V
Column name: Acquity UPLC Peptide BEH C18 column (50*2.1 mm; 1.7 um; 130A)(Waters Co.,Milford, MA, USA)
Retention time: 14.38573
Precursor type: [M+NH4]+
Precursor m/z: 924.7958
Intensity: 52510
m/z	relative intensity
79.053	17
81.069	48
83.084	18
85.099	3
91.053	11
93.069	22
95.084	53
97.064	4
97.1	16
99.08	3
105.07	12
107.085	21
109.101	27
111.115	7
119.085	14
121.1	30
123.116	20
131.084	9
133.099	10
135.117	26
137.131	8
145.101	9
147.115	8
149.132	17
151.146	8
159.117	12
161.13	17
163.147	25
165.163	6
171.115	6
173.13	15
175.147	20
177.163	17
179.18	4
185.131	5
187.148	12
189.163	14
191.18	10
199.148	8
201.165	12
203.178	10
205.195	6
213.165	4
215.178	11
217.193	6
227.178	5
239.236	6
243.207	10
245.227	19
247.241	16
261.221	36
263.235	50
265.253	47
269.225	5
271.24	40
273.255	3
275.276	3
287.237	16
289.251	81
291.267	5
293.223	4
293.278	6
293.293	3
294.235	6
295.235	2
297.26	4
311.235	9
311.251	2
312.243	7
313.239	4
313.27	11
314.276	9
315.259	4
315.272	4
317.242	7
317.261	4
319.254	6
319.268	8
327.265	3
337.273	54
339.288	66
340.279	2
340.303	2
343.264	4
345.278	37
361.278	3
363.29	12
365.308	3
367.32	5
513.403	2
533.475	5
551.474	18
553.492	6
553.506	3
569.482	4
569.505	2
571.511	3
573.505	4
575.502	65
577.514	54
578.519	120
579.524	122
587.506	6
589.506	3
589.535	4
597.483	156
597.503	30
599.499	169
599.637	3
600.503	3
601.517	892
602.525	13
603.529	87
607.512	3
611.508	6
623.492	6
623.513	5
623.56	3
624.491	17
624.516	13
625.515	897
626.518	10
626.541	4
627.532	999
628.516	5
628.533	5
628.555	3
629.547	204
641.503	2
641.538	3
643.517	6
645.531	3
645.557	4
649.515	3
650.518	36
651.513	41
651.538	39
653.538	15
653.569	3
671.512	0
671.553	0
679.543	0
681.577	0
683.522	0
697.608	0
709.592	0
711.542	1
713.571	0
723.604	1
737.632	1
741.592	1
755.592	0
757.627	1
767.625	1
769.618	1
781.626	1
781.697	0
783.629	1
783.663	1
795.631	2
795.652	2
795.686	2
795.718	1
797.655	1
809.621	0
809.664	3
809.701	1
811.651	0
823.657	1
823.689	0
825.684	0
833.729	0
837.689	2
842.718	1
865.701	0
871.766	0
889.713	4
889.74	16
889.775	37
890.771	1
891.707	24
891.74	112
892.716	1
892.772	0
904.93	0
907.696	1
907.774	328
908.75	3
908.789	3
921.896	0
924.797	333
925.785	7
925.813	5
925.848	1
