Mass spectrum: TG 58:7; LC-ESI-QTOF; MS2
Name: TG 58:7
Class:  TAG
Formula: C61H104O6
Exact mass: 933.497
SMILES: CCCCCCCCCCCCCCCC(=O)OCC(COC(=O)CC\C=C/C\C=C/C\C=C/C\C=C/C\C=C/C\C=C/CC)OC(=O)CCCCCCCCC\C=C/CCCCCCCC
InChI: InChI=1S/C61H104O6/c1-4-7-10-13-16-19-22-25-27-29-30-32-33-36-39-42-45-48-51-54-60(63)66-57-58(56-65-59(62)53-50-47-44-41-38-35-24-21-18-15-12-9-6-3)67-61(64)55-52-49-46-43-40-37-34-31-28-26-23-20-17-14-11-8-5-2/h7,10,16,19,25-28,30,32,36,39,45,48,58H,4-6,8-9,11-15,17-18,20-24,29,31,33-35,37-38,40-44,46-47,49-57H2,1-3H3/b10-7-,19-16-,27-25-,28-26-,32-30-,39-36-,48-45-
Instrument: AB Sciex TripleTOF 5600+ system (Q-TOF) equipped with a DuoSpray ion source
Instrument type: LC-ESI-QTOF
Ms type: MS2
Ion mode: POSITIVE
Collision energy: 45V
Column name: Acquity UPLC Peptide BEH C18 column (50*2.1 mm; 1.7 um; 130A)(Waters Co.,Milford, MA, USA)
Retention time: 14.72046
Precursor type: [M+NH4]+
Precursor m/z: 950.8115
Intensity: 1134
m/z	relative intensity
81.072	17
83.086	11
91.053	11
95.085	32
97.105	10
109.102	26
117.065	8
121.102	11
123.118	10
135.115	12
159.11	8
171.114	14
173.13	10
175.147	15
181.103	10
183.118	10
185.131	17
187.145	8
189.129	11
197.132	11
199.147	14
201.161	17
211.14	7
211.158	11
213.164	15
215.183	12
223.146	15
225.164	10
227.177	22
237.163	9
241.159	10
247.237	16
265.253	32
267.268	18
269.224	14
283.205	4
292.964	5
293.225	73
309.22	4
311.226	17
311.237	81
313.269	7
339.27	14
339.288	7
339.295	23
341.295	13
341.306	40
348.973	4
367.268	5
367.322	8
383.264	4
573.471	8
575.488	13
589.504	16
589.513	13
589.52	20
589.526	14
589.533	10
589.544	16
591.525	33
591.536	13
591.542	13
591.549	14
591.556	11
591.563	8
601.501	11
601.508	8
601.522	33
601.536	10
601.543	11
603.525	10
603.561	8
605.529	217
605.546	999
605.563	235
605.57	186
606.547	20
606.557	10
606.564	8
615.532	18
623.483	17
623.498	10
623.531	15
649.506	211
649.524	50
649.531	50
649.541	45
651.507	32
651.514	29
651.525	90
651.536	50
651.548	76
667.528	8
677.524	18
677.546	10
677.584	8
829.688	8
829.7	10
829.712	23
829.725	11
829.748	14
856.731	5
868.719	13
868.741	5
868.753	5
868.782	4
882.758	10
888.804	21
933.744	8
933.755	14
933.78	45
933.798	13
933.812	22
950.76	31
950.793	112
950.806	84
950.826	214
950.849	42
950.893	10
950.91	5
