Mass spectrum: TG 58:8; LC-ESI-QTOF; MS2
Name: TG 58:8
Class:  TAG
Formula: C61H102O6
Exact mass: 931.481
SMILES: CCCCCC\C=C/CCCCCCCCCC(=O)OCC(COC(=O)CC\C=C/C\C=C/C\C=C/C\C=C/C\C=C/C\C=C/CC)OC(=O)CCCCCCCCC\C=C/CCCCCC
InChI: InChI=1S/C61H102O6/c1-4-7-10-13-16-19-22-25-28-29-30-31-34-36-39-42-45-48-51-54-60(63)66-57-58(67-61(64)55-52-49-46-43-40-37-33-27-24-21-18-15-12-9-6-3)56-65-59(62)53-50-47-44-41-38-35-32-26-23-20-17-14-11-8-5-2/h7,10,16,19-21,23-25,28,30-31,36,39,45,48,58H,4-6,8-9,11-15,17-18,22,26-27,29,32-35,37-38,40-44,46-47,49-57H2,1-3H3/b10-7-,19-16-,23-20-,24-21-,28-25-,31-30-,39-36-,48-45-
Instrument: AB Sciex TripleTOF 5600+ system (Q-TOF) equipped with a DuoSpray ion source
Instrument type: LC-ESI-QTOF
Ms type: MS2
Ion mode: POSITIVE
Collision energy: 45V
Column name: Acquity UPLC Peptide BEH C18 column (50*2.1 mm; 1.7 um; 130A)(Waters Co.,Milford, MA, USA)
Retention time: 14.41368
Precursor type: [M+NH4]+
Precursor m/z: 948.8015
Intensity: 13690
m/z	relative intensity
71.083	3
77.037	3
79.053	3
81.069	14
83.085	5
85.1	3
91.054	7
93.069	6
95.085	17
97.101	8
105.069	5
107.084	8
109.099	13
111.116	6
117.068	5
119.084	4
121.1	10
123.117	6
131.082	4
133.1	6
135.117	7
137.133	4
143.083	3
145.104	4
147.116	3
149.132	7
157.102	5
159.117	6
161.132	7
163.149	6
169.101	6
171.117	11
173.133	9
175.147	8
181.1	4
183.119	4
185.133	8
187.148	7
189.129	3
189.168	2
195.115	5
197.127	4
197.137	3
199.148	9
201.163	10
203.18	3
209.13	5
211.149	9
213.161	10
213.172	4
215.179	8
223.15	8
225.164	4
227.142	2
227.169	4
227.181	11
229.156	4
237.158	4
237.173	3
241.157	4
247.243	7
251.18	4
263.236	11
265.203	3
265.25	38
267.21	6
267.266	5
269.225	11
283.208	1
283.239	4
283.259	2
291.21	1
291.274	2
293.225	36
293.239	10
309.221	2
309.245	1
311.237	66
313.267	1
319.262	3
321.276	3
323.3	1
337.273	15
339.29	43
341.303	12
341.316	3
351.232	1
352.239	1
365.305	1
367.252	1
367.267	2
367.291	1
383.263	1
385.268	2
391.284	1
393.297	2
395.316	1
489.408	1
525.387	1
529.492	1
539.41	1
547.497	1
555.447	1
557.459	1
559.484	1
573.462	2
575.471	2
575.491	2
577.51	2
577.536	1
578.517	3
578.54	2
599.479	1
599.51	2
600.482	1
600.516	6
601.488	1
601.509	1
601.528	3
601.641	2
601.667	2
603.535	999
604.538	20
605.56	1
621.482	1
623.479	3
623.505	8
623.534	1
629.552	1
645.479	2
645.51	1
646.488	4
646.515	1
647.5	94
648.504	3
649.516	243
650.529	6
651.535	82
652.538	2
665.498	1
667.539	2
671.486	3
671.513	2
672.506	5
672.528	2
675.532	8
677.546	1
809.681	0
821.673	0
849.692	1
861.672	1
866.745	2
880.745	0
913.758	7
913.807	1
928.664	1
928.749	211
928.812	5
929.721	1
931.73	5
931.775	49
931.806	18
932.763	1
932.806	0
945.839	1
948.799	238
949.784	3
949.815	4
949.855	1
