Mass spectrum: TG 46:2; LC-ESI-QTOF; MS2
Name: TG 46:2
Class:  TAG
Formula: C49H90O6
Exact mass: 775.253
SMILES: CCCCCCCCCCCCCC(=O)OCC(COC(=O)CCCCCCCC\C=C/C=C\CCCCC)OC(=O)CCCCCCCCCCCCC
InChI: InChI=1S/C49H90O6/c1-4-7-10-13-16-19-22-23-24-25-28-30-33-36-39-42-48(51)54-45-46(55-49(52)43-40-37-34-31-27-21-18-15-12-9-6-3)44-53-47(50)41-38-35-32-29-26-20-17-14-11-8-5-2/h16,19,22-23,46H,4-15,17-18,20-21,24-45H2,1-3H3/b19-16-,23-22-
Instrument: AB Sciex TripleTOF 5600+ system (Q-TOF) equipped with a DuoSpray ion source
Instrument type: LC-ESI-QTOF
Ms type: MS2
Ion mode: POSITIVE
Collision energy: 45V
Column name: Acquity UPLC Peptide BEH C18 column (50*2.1 mm; 1.7 um; 130A)(Waters Co.,Milford, MA, USA)
Retention time: 13.89746
Precursor type: [M+NH4]+
Precursor m/z: 792.7053
Intensity: 445
m/z	relative intensity
81.069	151
95.083	113
121.102	113
211.201	113
237.21	113
292.955	75
319.266	75
439.04	75
460.97	113
493.31	87
493.407	151
495.434	386
495.453	462
519.423	424
519.447	882
521.441	348
521.46	537
547.476	999
549.485	340
575.495	886
577.53	75
584.998	140
792.719	193
