Mass spectrum: TG 56:5; LC-ESI-QTOF; MS2
Name: TG 56:5
Class:  TAG
Formula: C59H104O6
Exact mass: 909.475
SMILES: CCCCCCCC\C=C/C\C=C/C\C=C/CCCC(=O)OCC(COC(=O)CCCCCCCCC\C=C/CCCCCC)OC(=O)CCCCCCCCC\C=C/CCCCCC
InChI: InChI=1S/C59H104O6/c1-4-7-10-13-16-19-22-25-28-29-32-34-37-40-43-46-49-52-58(61)64-55-56(65-59(62)53-50-47-44-41-38-35-31-27-24-21-18-15-12-9-6-3)54-63-57(60)51-48-45-42-39-36-33-30-26-23-20-17-14-11-8-5-2/h20-21,23-25,28,32,34,40,43,56H,4-19,22,26-27,29-31,33,35-39,41-42,44-55H2,1-3H3/b23-20-,24-21-,28-25-,34-32-,43-40-
Instrument: AB Sciex TripleTOF 5600+ system (Q-TOF) equipped with a DuoSpray ion source
Instrument type: LC-ESI-QTOF
Ms type: MS2
Ion mode: POSITIVE
Collision energy: 45V
Column name: Acquity UPLC Peptide BEH C18 column (50*2.1 mm; 1.7 um; 130A)(Waters Co.,Milford, MA, USA)
Retention time: 14.60939
Precursor type: [M+NH4]+
Precursor m/z: 926.8182
Intensity: 11855
m/z	relative intensity
79.053	8
81.071	21
83.085	7
93.07	8
95.082	12
95.09	12
97.101	10
99.081	4
107.083	9
109.101	10
111.119	5
119.086	4
121.099	7
123.117	10
133.099	5
135.113	9
147.119	4
149.125	5
149.138	4
161.134	8
163.148	11
175.145	8
189.168	5
203.175	5
245.225	14
261.226	7
263.237	42
265.258	12
273.223	2
273.26	2
275.271	5
289.252	5
291.27	7
293.28	11
293.297	4
305.275	2
319.258	7
319.279	3
321.28	2
335.255	3
337.273	14
337.29	6
339.285	11
345.279	2
347.306	4
349.312	3
365.307	5
367.307	3
367.326	15
391.278	2
525.47	4
543.475	3
553.507	4
573.482	3
573.525	4
577.52	4
578.52	9
579.518	2
579.553	3
599.504	426
599.68	3
601.52	245
603.525	31
603.547	23
603.573	6
605.547	10
617.536	4
621.497	9
623.478	16
623.505	46
624.51	3
625.502	18
625.529	12
625.563	5
627.537	258
627.594	3
629.552	999
631.549	7
631.575	11
653.538	3
655.561	4
671.543	1
673.597	1
713.57	1
783.633	1
797.662	4
811.716	2
839.71	1
841.729	3
844.737	2
891.77	13
891.81	7
902.917	1
905.76	444
905.907	1
906.959	1
909.795	144
923.897	1
926.82	185
