Mass spectrum: TG 56:4; LC-ESI-QTOF; MS2
Name: TG 56:4
Class:  TAG
Formula: C59H106O6
Exact mass: 911.491
SMILES: CCCCCC\C=C/CCCCCCCCCC(=O)OCC(COC(=O)CCCCCCCCC\C=C/C\C=C/CCCCC)OC(=O)CCCCCCCCC\C=C/CCCCCC
InChI: InChI=1S/C59H106O6/c1-4-7-10-13-16-19-22-25-28-29-32-34-37-40-43-46-49-52-58(61)64-55-56(65-59(62)53-50-47-44-41-38-35-31-27-24-21-18-15-12-9-6-3)54-63-57(60)51-48-45-42-39-36-33-30-26-23-20-17-14-11-8-5-2/h16,19-21,23-25,28,56H,4-15,17-18,22,26-27,29-55H2,1-3H3/b19-16-,23-20-,24-21-,28-25-
Instrument: AB Sciex TripleTOF 5600+ system (Q-TOF) equipped with a DuoSpray ion source
Instrument type: LC-ESI-QTOF
Ms type: MS2
Ion mode: POSITIVE
Collision energy: 45V
Column name: Acquity UPLC Peptide BEH C18 column (50*2.1 mm; 1.7 um; 130A)(Waters Co.,Milford, MA, USA)
Retention time: 14.90952
Precursor type: [M+NH4]+
Precursor m/z: 928.8305
Intensity: 109321
m/z	relative intensity
71.05	0
71.085	2
77.038	1
79.054	6
81.069	29
83.085	16
85.064	1
85.102	1
91.054	3
93.07	10
95.085	34
97.065	1
97.1	13
99.08	2
99.116	0
105.072	2
107.084	9
109.101	22
111.08	2
111.115	7
113.095	1
119.084	2
121.1	18
123.116	13
125.097	1
125.132	2
127.112	2
131.085	0
133.1	5
135.116	15
137.095	0
137.132	8
139.111	1
139.146	0
141.127	1
147.116	3
149.132	10
151.112	0
151.147	5
153.127	3
155.14	0
159.121	0
161.131	7
163.147	10
165.132	0
165.162	6
167.143	1
169.159	0
173.134	0
175.147	8
177.164	5
179.143	1
179.175	2
179.184	1
181.158	1
187.149	0
189.163	4
191.18	3
193.157	1
193.196	2
195.17	0
201.164	0
203.179	2
205.193	1
205.204	0
207.171	1
207.21	0
209.194	0
213.155	0
217.199	0
219.209	1
221.186	0
233.225	1
235.17	0
235.243	0
237.217	0
243.212	1
245.227	23
247.24	14
249.185	0
261.219	2
263.201	0
263.237	63
265.214	0
265.252	47
267.269	0
271.239	0
273.255	1
273.266	0
275.274	11
277.25	0
279.231	0
282.271	0
282.284	0
283.243	0
287.238	0
289.248	1
291.268	4
293.284	40
295.297	0
301.247	0
303.233	0
305.247	0
305.287	0
307.263	0
310.308	0
311.26	0
313.271	0
317.236	0
317.285	0
319.262	14
319.304	0
321.282	2
321.319	0
323.291	0
331.266	0
335.258	0
337.272	16
339.29	31
341.29	0
341.304	1
345.28	0
345.308	0
347.282	0
347.301	0
349.309	3
351.25	0
357.319	0
359.293	0
365.264	0
365.299	0
365.312	0
367.238	0
367.319	23
369.325	0
369.343	1
377.264	0
379.289	0
389.369	0
391.285	0
393.301	0
395.36	0
405.3	0
407.314	0
419.314	0
421.327	0
431.392	0
443.408	0
447.426	0
457.426	0
461.361	0
463.377	0
477.399	0
503.401	0
509.47	0
517.448	0
519.445	0
527.477	3
527.497	1
537.499	0
545.45	0
545.493	2
547.469	0
555.496	2
555.515	2
555.547	1
557.504	0
557.529	1
557.547	0
573.49	15
573.526	2
575.501	9
577.505	1
583.509	0
585.473	0
587.505	0
589.526	0
599.503	39
599.617	1
599.633	1
599.655	1
601.415	0
601.517	946
602.135	0
602.492	7
602.521	95
602.542	56
602.569	1
603.533	114
604.541	1
605.526	3
605.549	10
605.584	0
607.558	0
608.564	0
609.555	0
615.525	1
615.549	0
617.533	0
617.555	1
619.524	0
624.519	0
625.504	1
626.519	1
627.513	8
627.535	24
627.591	2
628.521	0
628.568	0
629.41	1
629.548	999
630.525	2
630.561	16
631.437	1
631.563	947
632.045	0
632.556	5
632.581	16
643.561	0
645.556	0
645.579	1
647.559	0
647.584	0
653.545	0
655.523	1
655.557	6
655.58	4
657.579	8
657.598	3
659.592	0
671.573	0
671.597	0
673.538	0
673.599	0
675.553	0
685.621	0
687.53	0
687.607	0
689.567	0
701.558	0
703.591	0
713.617	0
715.597	0
717.593	0
727.65	0
729.593	0
729.662	0
741.673	0
743.607	0
753.677	0
755.7	0
757.633	0
771.664	0
773.662	0
781.673	0
785.64	0
785.667	0
785.712	0
799.676	0
799.73	0
809.747	0
813.674	0
813.729	0
827.697	0
827.741	0
893.789	15
893.825	2
893.862	0
894.775	0
894.815	0
908.963	0
909.711	0
909.74	2
909.782	32
911.739	1
911.805	118
911.899	0
912.799	1
912.838	0
925.879	0
925.929	0
928.7	0
928.831	149
929.784	0
929.821	3
929.841	2
929.887	0
