Mass spectrum: TG 53:1; LC-ESI-QTOF; MS2
Name: TG 53:1
Class:  TAG
Formula: C56H106O6
Exact mass: 875.458
SMILES: CCCCCCCCCCCCCCCCCCC(=O)OCC(COC(=O)CCCCCCCCCCCCCCC)OC(=O)CCCCCCCCC\C=C/CCCCCC
InChI: InChI=1S/C56H106O6/c1-4-7-10-13-16-19-22-25-27-29-31-34-37-40-43-46-49-55(58)61-52-53(51-60-54(57)48-45-42-39-36-33-30-24-21-18-15-12-9-6-3)62-56(59)50-47-44-41-38-35-32-28-26-23-20-17-14-11-8-5-2/h20,23,53H,4-19,21-22,24-52H2,1-3H3/b23-20-
Instrument: AB Sciex TripleTOF 5600+ system (Q-TOF) equipped with a DuoSpray ion source
Instrument type: LC-ESI-QTOF
Ms type: MS2
Ion mode: POSITIVE
Collision energy: 45V
Column name: Acquity UPLC Peptide BEH C18 column (50*2.1 mm; 1.7 um; 130A)(Waters Co.,Milford, MA, USA)
Retention time: 15.37951
Precursor type: [M+NH4]+
Precursor m/z: 892.8325
Intensity: 269
m/z	relative intensity
186.992	71
226.986	95
247.237	71
268.997	109
311.067	43
339.086	57
341.104	27
359.028	41
433.001	27
565.513	82
577.489	95
577.514	999
577.546	109
577.561	109
579.521	178
591.512	178
591.521	153
591.528	136
591.535	164
591.542	123
591.554	232
593.529	208
593.538	194
593.544	235
593.551	249
593.558	224
593.565	210
593.574	178
605.539	427
605.563	410
619.541	167
619.548	197
619.565	964
619.583	252
619.594	210
681.06	27
845.654	27
845.662	27
845.687	41
892.758	41
892.772	328
892.821	232
892.863	205
