Mass spectrum: TG 53:2; LC-ESI-QTOF; MS2
Name: TG 53:2
Class:  TAG
Formula: C56H104O6
Exact mass: 873.442
SMILES: CCCCCCCCCCCCCCCC(=O)OCC(COC(=O)CCCCCCC\C=C/CCCCCCCCC)OC(=O)CCCCCCCCC\C=C/CCCCCC
InChI: InChI=1S/C56H104O6/c1-4-7-10-13-16-19-22-25-27-29-31-34-37-40-43-46-49-55(58)61-52-53(51-60-54(57)48-45-42-39-36-33-30-24-21-18-15-12-9-6-3)62-56(59)50-47-44-41-38-35-32-28-26-23-20-17-14-11-8-5-2/h20,23,27,29,53H,4-19,21-22,24-26,28,30-52H2,1-3H3/b23-20-,29-27-
Instrument: AB Sciex TripleTOF 5600+ system (Q-TOF) equipped with a DuoSpray ion source
Instrument type: LC-ESI-QTOF
Ms type: MS2
Ion mode: POSITIVE
Collision energy: 45V
Column name: Acquity UPLC Peptide BEH C18 column (50*2.1 mm; 1.7 um; 130A)(Waters Co.,Milford, MA, USA)
Retention time: 14.98753
Precursor type: [M+NH4]+
Precursor m/z: 890.8141
Intensity: 57083
m/z	relative intensity
71.085	6
77.038	1
79.053	3
81.07	17
83.085	13
85.065	1
85.1	7
91.054	0
93.069	3
95.085	23
97.065	1
97.1	13
99.08	0
99.117	1
107.085	4
109.101	17
111.08	1
111.116	6
113.094	0
113.132	0
121.101	9
123.116	8
125.096	0
125.132	2
127.109	0
133.099	0
135.115	10
137.133	5
139.105	0
139.114	0
139.146	0
141.125	0
147.117	0
149.132	5
151.147	3
153.12	0
153.127	1
155.139	0
161.131	1
163.147	4
163.157	0
165.163	4
167.143	1
175.144	0
175.157	0
177.163	1
179.18	2
189.159	0
191.177	1
193.199	0
195.174	0
205.187	0
205.197	0
219.212	0
221.227	1
225.22	0
233.225	1
235.245	1
237.219	1
239.237	11
245.224	3
247.242	17
251.237	3
253.253	10
261.258	3
263.222	2
263.239	8
265.252	49
267.267	2
270.283	0
271.264	0
275.275	0
279.266	10
281.278	1
282.28	0
293.278	1
303.266	0
305.323	0
309.281	0
311.254	0
313.273	5
319.261	1
319.274	0
321.273	1
321.287	1
323.293	0
325.272	0
325.291	0
327.27	1
327.291	7
335.251	0
335.297	0
337.27	1
339.289	12
341.299	1
341.318	0
353.301	2
353.316	0
355.318	1
355.338	0
367.33	0
515.479	0
517.494	0
529.487	0
529.506	0
535.502	0
543.502	0
547.491	0
549.488	2
551.502	0
561.469	0
561.489	1
563.505	40
565.509	2
565.534	1
573.709	0
575.503	128
576.492	0
576.514	0
577.517	272
578.507	1
578.533	0
579.524	0
585.499	0
587.494	1
587.517	1
589.518	140
589.67	0
589.692	1
589.734	0
590.515	0
590.888	0
591.336	0
591.414	0
591.532	999
592.2	0
592.5	0
592.537	8
593.547	133
594.547	0
594.581	0
599.489	1
599.506	0
601.628	0
601.655	0
601.68	0
603.533	528
604.517	0
604.544	2
604.575	0
605.547	81
606.555	0
613.493	0
613.519	2
615.604	0
615.641	0
617.548	397
618.536	0
618.563	1
619.555	16
619.577	13
627.527	0
631.561	22
645.564	0
645.584	1
783.474	0
855.717	0
855.751	0
855.773	1
855.795	0
867.074	0
869.755	40
870.743	0
870.806	0
873.737	0
873.781	8
873.81	3
873.831	0
874.778	0
887.996	0
890.726	1
890.815	108
890.888	0
891.785	0
891.81	0
891.851	0
