Mass spectrum: TG 56:7; LC-ESI-QTOF; MS2
Name: TG 56:7
Class:  TAG
Formula: C59H100O6
Exact mass: 905.443
SMILES: CCCCCC\C=C/CCCCCCCCCC(=O)OCC(COC(=O)CCC\C=C/C\C=C/C\C=C/C\C=C/C\C=C/CC)OC(=O)CCCCCCCCC\C=C/CCCCCC
InChI: InChI=1S/C59H100O6/c1-4-7-10-13-16-19-22-25-28-29-32-34-37-40-43-46-49-52-58(61)64-55-56(65-59(62)53-50-47-44-41-38-35-31-27-24-21-18-15-12-9-6-3)54-63-57(60)51-48-45-42-39-36-33-30-26-23-20-17-14-11-8-5-2/h7,10,16,19-21,23-25,28,32,34,40,43,56H,4-6,8-9,11-15,17-18,22,26-27,29-31,33,35-39,41-42,44-55H2,1-3H3/b10-7-,19-16-,23-20-,24-21-,28-25-,34-32-,43-40-
Instrument: AB Sciex TripleTOF 5600+ system (Q-TOF) equipped with a DuoSpray ion source
Instrument type: LC-ESI-QTOF
Ms type: MS2
Ion mode: POSITIVE
Collision energy: 45V
Column name: Acquity UPLC Peptide BEH C18 column (50*2.1 mm; 1.7 um; 130A)(Waters Co.,Milford, MA, USA)
Retention time: 14.25093
Precursor type: [M+NH4]+
Precursor m/z: 922.786
Intensity: 33695
m/z	relative intensity
71.083	1
77.038	2
79.054	4
81.069	23
83.085	7
85.063	2
85.098	1
91.053	11
93.069	12
95.085	22
97.062	1
97.102	5
99.078	1
105.069	9
107.085	8
109.1	10
111.115	3
117.068	6
119.084	13
121.1	16
123.115	9
125.096	2
127.111	1
129.067	2
131.084	10
133.1	13
135.116	8
137.132	5
143.085	3
145.1	5
147.116	8
149.093	1
149.129	6
151.148	3
153.125	2
157.1	5
159.116	6
161.095	2
161.131	11
163.146	8
165.159	2
169.101	1
171.116	13
173.132	8
175.112	2
175.148	13
177.124	1
177.164	9
185.131	13
187.147	8
189.124	4
189.165	18
191.179	5
193.158	1
197.133	1
199.148	11
201.163	12
203.144	2
203.178	82
205.188	1
213.162	6
215.179	4
217.196	1
227.177	5
229.194	1
241.192	3
243.21	4
245.225	16
247.239	9
259.205	5
259.245	7
261.222	3
263.236	24
265.251	27
267.199	1
267.212	2
269.226	84
271.242	2
285.22	7
287.237	90
288.232	1
289.251	2
295.211	0
295.245	2
301.252	0
313.254	8
313.281	2
317.248	0
319.265	7
321.273	1
325.254	1
335.254	1
335.266	0
336.226	0
337.274	99
338.282	1
339.289	108
340.291	1
343.26	6
359.262	1
361.267	1
361.284	1
367.29	0
369.272	0
385.284	0
391.284	3
393.295	2
393.311	2
437.345	0
449.347	0
461.356	0
463.394	0
465.408	0
471.351	0
473.358	0
477.408	0
485.367	0
499.373	1
501.406	0
513.401	0
523.476	0
525.413	0
527.472	1
527.493	0
531.456	4
533.467	1
539.406	0
545.497	0
549.445	1
549.467	4
549.487	2
551.48	4
567.476	0
573.49	6
575.502	28
576.494	1
576.525	1
577.5	6
577.526	5
579.497	0
579.524	1
579.554	0
595.466	0
597.478	1
597.507	0
599.486	5
599.511	6
599.634	2
599.658	1
601.517	999
602.485	1
602.524	33
603.548	5
605.504	0
615.536	0
619.531	1
621.471	1
621.497	1
621.553	1
623.502	250
624.499	2
624.524	2
625.518	247
626.496	0
626.527	4
627.508	1
627.539	6
639.49	1
641.498	1
641.523	1
643.516	1
643.537	1
649.517	24
650.514	0
651.537	1
671.571	0
683.536	0
699.628	0
725.611	0
727.601	0
737.647	0
739.603	0
753.607	0
765.607	0
767.616	0
777.642	0
779.613	1
779.687	0
781.619	0
793.605	0
793.639	0
795.631	0
795.671	0
795.706	0
803.686	0
807.648	0
807.684	0
821.642	0
821.679	0
821.7	0
821.721	0
825.711	0
835.679	0
840.709	2
840.752	0
859.762	0
876.683	0
876.715	0
876.737	0
876.784	0
877.663	0
877.706	9
877.734	9
877.763	2
887.704	0
887.715	2
887.75	11
887.792	1
888.738	0
902.932	0
905.76	108
906.723	0
906.749	1
906.77	1
906.793	0
906.814	0
919.877	0
922.709	0
922.786	195
923.778	7
923.816	0
