Mass spectrum: TG 47:2; LC-ESI-QTOF; MS2
Name: TG 47:2
Class:  TAG
Formula: C50H92O6
Exact mass: 789.28
SMILES: CCCCCCCCCCCCCCCC(=O)OC(COC(=O)CCCCCCCCCCCC)COC(=O)CCCCCCCC\C=C/C=C\CCCCC
InChI: InChI=1S/C50H92O6/c1-4-7-10-13-16-19-22-24-25-27-28-31-34-37-40-43-49(52)55-46-47(45-54-48(51)42-39-36-33-30-21-18-15-12-9-6-3)56-50(53)44-41-38-35-32-29-26-23-20-17-14-11-8-5-2/h16,19,22,24,47H,4-15,17-18,20-21,23,25-46H2,1-3H3/b19-16-,24-22-
Instrument: AB Sciex TripleTOF 5600+ system (Q-TOF) equipped with a DuoSpray ion source
Instrument type: LC-ESI-QTOF
Ms type: MS2
Ion mode: POSITIVE
Collision energy: 45V
Column name: Acquity UPLC Peptide BEH C18 column (50*2.1 mm; 1.7 um; 130A)(Waters Co.,Milford, MA, USA)
Retention time: 14.02095
Precursor type: [M+NH4]+
Precursor m/z: 806.7233
Intensity: 1476
m/z	relative intensity
81.069	70
83.082	46
95.085	165
97.101	46
109.102	81
111.113	46
121.1	81
123.121	50
203.18	46
263.236	105
313.273	142
337.267	26
507.436	164
509.46	737
519.441	105
521.459	189
521.487	46
523.471	58
533.456	534
533.487	117
535.467	393
535.503	58
547.474	904
547.509	47
549.489	165
551.501	259
561.492	999
563.502	94
575.494	201
575.517	142
589.521	141
771.681	46
789.708	50
806.729	140
