Mass spectrum: TG 62:12; LC-ESI-QTOF; MS2
Name: TG 62:12
Class:  TAG
Formula: C65H102O6
Exact mass: 979.525
SMILES: CCCCCCCCCCCCCCCCCC(=O)OCC(COC(=O)CC\C=C/C\C=C/C\C=C/C\C=C/C\C=C/C\C=C/CC)OC(=O)CC\C=C/C\C=C/C\C=C/C\C=C/C\C=C/C\C=C/CC
InChI: InChI=1S/C65H102O6/c1-4-7-10-13-16-19-22-25-28-30-32-34-37-40-43-46-49-52-55-58-64(67)70-61-62(60-69-63(66)57-54-51-48-45-42-39-36-27-24-21-18-15-12-9-6-3)71-65(68)59-56-53-50-47-44-41-38-35-33-31-29-26-23-20-17-14-11-8-5-2/h7-8,10-11,16-17,19-20,25-26,28-29,32-35,40-41,43-44,49-50,52-53,62H,4-6,9,12-15,18,21-24,27,30-31,36-39,42,45-48,51,54-61H2,1-3H3/b10-7-,11-8-,19-16-,20-17-,28-25-,29-26-,34-32-,35-33-,43-40-,44-41-,52-49-,53-50-
Instrument: AB Sciex TripleTOF 5600+ system (Q-TOF) equipped with a DuoSpray ion source
Instrument type: LC-ESI-QTOF
Ms type: MS2
Ion mode: POSITIVE
Collision energy: 45V
Column name: Acquity UPLC Peptide BEH C18 column (50*2.1 mm; 1.7 um; 130A)(Waters Co.,Milford, MA, USA)
Retention time: 14.3243
Precursor type: [M+NH4]+
Precursor m/z: 996.7967
Intensity: 2456
m/z	relative intensity
81.07	14
91.053	19
93.07	17
95.084	11
105.068	10
109.1	20
117.071	16
119.085	26
131.086	18
157.101	13
159.114	13
161.134	15
169.106	11
171.117	24
173.131	12
175.147	14
181.101	15
183.116	21
185.133	21
187.146	13
197.135	16
199.146	23
201.164	21
209.132	10
211.147	19
213.163	22
215.177	15
223.146	10
227.177	15
227.189	12
241.164	10
267.213	13
267.271	16
269.236	10
283.199	4
283.243	7
291.206	6
293.21	7
293.224	44
295.235	3
309.221	12
311.234	54
311.263	4
313.244	3
341.3	72
367.265	12
369.287	4
385.259	9
385.276	10
387.297	3
395.318	13
433.007	4
621.455	6
625.505	6
649.464	3
649.515	14
651.374	4
651.527	999
651.555	227
652.534	45
652.588	3
671.465	4
671.507	9
673.522	5
695.459	16
695.495	161
695.533	21
695.555	6
696.513	7
697.524	6
711.489	1
736.462	1
806.957	1
864.541	1
869.64	1
902.732	5
928.726	8
953.703	39
953.744	172
953.774	69
954.729	7
954.796	5
961.751	7
979.739	12
979.756	20
979.786	26
979.843	6
996.747	56
996.791	321
996.831	61
996.859	12
997.751	5
997.782	8
997.804	9
