Mass spectrum: TG 58:8; LC-ESI-QTOF; MS2
Name: TG 58:8
Class:  TAG
Formula: C61H102O6
Exact mass: 931.481
SMILES: CCCCCCCCCCCCCCCCCC(=O)OCC(COC(=O)CC\C=C/C\C=C/C\C=C/C\C=C/C\C=C/C\C=C/CC)OC(=O)CCCCCCCC\C=C/C=C\CCCCC
InChI: InChI=1S/C61H102O6/c1-4-7-10-13-16-19-22-25-28-29-30-31-34-36-39-42-45-48-51-54-60(63)66-57-58(67-61(64)55-52-49-46-43-40-37-33-27-24-21-18-15-12-9-6-3)56-65-59(62)53-50-47-44-41-38-35-32-26-23-20-17-14-11-8-5-2/h7,10,16,18-19,21,24-25,27-28,30-31,36,39,45,48,58H,4-6,8-9,11-15,17,20,22-23,26,29,32-35,37-38,40-44,46-47,49-57H2,1-3H3/b10-7-,19-16-,21-18-,27-24-,28-25-,31-30-,39-36-,48-45-
Instrument: AB Sciex TripleTOF 5600+ system (Q-TOF) equipped with a DuoSpray ion source
Instrument type: LC-ESI-QTOF
Ms type: MS2
Ion mode: POSITIVE
Collision energy: 45V
Column name: Acquity UPLC Peptide BEH C18 column (50*2.1 mm; 1.7 um; 130A)(Waters Co.,Milford, MA, USA)
Retention time: 14.45326
Precursor type: [M+NH4]+
Precursor m/z: 948.7969
Intensity: 15620
m/z	relative intensity
79.055	5
81.069	13
83.086	9
85.101	1
91.055	5
93.068	5
93.075	2
95.085	16
97.1	6
105.07	3
107.087	5
109.101	12
111.083	1
111.114	3
117.07	4
119.081	1
119.089	4
121.102	9
123.117	4
129.068	2
131.084	5
133.1	5
135.117	9
137.132	2
143.085	2
145.102	5
147.113	3
149.133	5
151.15	2
155.081	2
157.101	3
159.116	6
161.134	7
163.147	4
165.166	2
167.083	2
169.101	6
171.117	8
173.131	7
175.148	7
181.096	1
181.108	2
183.116	4
185.133	7
187.143	3
187.153	2
189.128	2
189.165	2
195.118	3
197.135	4
199.145	5
199.157	2
201.128	3
201.162	9
203.179	3
209.134	6
211.148	11
213.125	1
213.165	9
215.178	7
223.145	7
223.159	2
225.167	5
227.18	12
229.16	3
237.165	5
239.178	4
241.157	4
241.189	1
245.225	2
247.24	12
251.177	4
253.199	2
255.177	1
263.239	6
265.206	2
265.253	48
267.212	3
267.266	2
269.214	2
269.228	5
282.282	1
283.205	1
283.244	5
291.216	1
293.228	44
295.24	1
309.226	3
311.237	50
319.265	1
321.277	2
323.292	1
337.277	8
339.291	64
341.303	9
341.323	2
349.258	1
367.262	4
367.279	2
383.256	2
385.271	1
393.289	1
393.302	3
435.341	1
487.386	1
515.396	1
527.407	1
529.49	1
539.397	0
539.478	0
555.465	0
557.458	1
557.481	1
575.452	1
575.482	2
575.497	3
575.517	1
601.508	3
601.528	2
601.641	1
603.533	999
604.53	7
604.551	5
621.486	3
623.51	1
629.538	1
647.495	38
647.521	16
649.519	299
649.589	1
650.513	1
650.531	1
651.53	28
651.553	13
665.505	1
667.509	0
667.533	2
675.518	2
675.543	2
677.548	2
805.686	0
809.673	0
821.65	0
821.711	0
828.703	1
828.742	0
849.689	0
861.662	0
861.715	0
865.718	0
866.684	1
866.712	3
866.736	4
866.762	1
880.721	1
891.713	1
891.748	1
913.737	1
913.773	4
931.776	57
932.763	0
932.797	1
944.674	0
944.713	2
944.748	1
944.781	0
945.81	1
948.713	0
948.802	232
949.787	2
949.838	1
