Mass spectrum: TG 47:3; LC-ESI-QTOF; MS2
Name: TG 47:3
Class:  TAG
Formula: C50H90O6
Exact mass: 787.264
SMILES: CCCCCCCCCCCCC(=O)OCC(COC(=O)CCCCCCCC\C=C/C=C\CCCCC)OC(=O)CCCCC\C=C/CCCCCCCC
InChI: InChI=1S/C50H90O6/c1-4-7-10-13-16-19-22-24-25-27-28-31-34-37-40-43-49(52)55-46-47(45-54-48(51)42-39-36-33-30-21-18-15-12-9-6-3)56-50(53)44-41-38-35-32-29-26-23-20-17-14-11-8-5-2/h16,19,22,24,26,29,47H,4-15,17-18,20-21,23,25,27-28,30-46H2,1-3H3/b19-16-,24-22-,29-26-
Instrument: AB Sciex TripleTOF 5600+ system (Q-TOF) equipped with a DuoSpray ion source
Instrument type: LC-ESI-QTOF
Ms type: MS2
Ion mode: POSITIVE
Collision energy: 45V
Column name: Acquity UPLC Peptide BEH C18 column (50*2.1 mm; 1.7 um; 130A)(Waters Co.,Milford, MA, USA)
Retention time: 13.78148
Precursor type: [M+NH4]+
Precursor m/z: 804.7039
Intensity: 468
m/z	relative intensity
81.071	49
95.086	36
109.097	36
186.995	54
226.986	73
237.216	29
263.239	45
269.002	72
285.239	20
308.981	18
311.253	55
313.271	81
390.997	95
449.357	18
457.408	18
467.408	45
472.963	18
473.02	18
477.031	18
489.394	57
495.436	54
505.423	72
507.414	45
507.434	175
507.462	148
517.42	90
519.438	138
521.469	45
522.53	63
531.417	54
531.449	101
533.457	323
545.441	54
545.468	109
547.464	118
549.473	82
549.5	194
551.507	64
559.484	109
561.478	100
573.502	100
587.5	54
601.513	54
685.456	40
745.633	999
786.767	40
787.675	45
804.614	18
804.697	90
