Mass spectrum: TG 58:7; LC-ESI-QTOF; MS2
Name: TG 58:7
Class:  TAG
Formula: C61H104O6
Exact mass: 933.497
SMILES: CCCCCC\C=C/CCCCCCCCCC(=O)OCC(COC(=O)CCCCC\C=C/C\C=C/C\C=C/C\C=C/C\C=C/CC)OC(=O)CCCCCCCCC\C=C/CCCCCC
InChI: InChI=1S/C61H104O6/c1-4-7-10-13-16-19-22-25-28-29-30-31-34-36-39-42-45-48-51-54-60(63)66-57-58(67-61(64)55-52-49-46-43-40-37-33-27-24-21-18-15-12-9-6-3)56-65-59(62)53-50-47-44-41-38-35-32-26-23-20-17-14-11-8-5-2/h7,10,16,19-21,23-25,28,30-31,36,39,58H,4-6,8-9,11-15,17-18,22,26-27,29,32-35,37-38,40-57H2,1-3H3/b10-7-,19-16-,23-20-,24-21-,28-25-,31-30-,39-36-
Instrument: AB Sciex TripleTOF 5600+ system (Q-TOF) equipped with a DuoSpray ion source
Instrument type: LC-ESI-QTOF
Ms type: MS2
Ion mode: POSITIVE
Collision energy: 45V
Column name: Acquity UPLC Peptide BEH C18 column (50*2.1 mm; 1.7 um; 130A)(Waters Co.,Milford, MA, USA)
Retention time: 14.52925
Precursor type: [M+NH4]+
Precursor m/z: 950.8149
Intensity: 3707
m/z	relative intensity
81.069	47
83.084	22
91.052	18
93.07	18
95.085	52
105.069	29
109.1	24
119.089	22
121.1	37
133.104	20
135.115	20
147.115	20
149.131	22
161.135	32
163.15	20
165.166	19
171.115	29
173.133	24
175.142	22
185.131	37
187.151	31
189.162	29
199.145	22
201.164	32
203.178	110
204.187	13
213.163	33
215.178	27
217.195	43
227.179	23
231.209	24
245.226	43
247.238	18
263.237	60
265.257	96
266.257	10
269.226	47
270.233	20
287.237	47
288.241	30
295.243	12
297.26	103
313.247	38
313.259	18
313.282	32
315.266	130
315.278	41
319.265	14
329.27	10
331.259	11
337.262	32
337.276	62
337.299	17
339.288	194
340.3	28
341.281	16
341.301	54
341.32	11
342.316	28
367.3	11
371.296	43
387.29	20
389.304	24
559.487	14
573.494	18
575.5	324
575.536	41
576.479	41
576.529	67
578.523	43
579.51	14
599.485	22
601.514	954
602.512	24
603.531	393
603.559	41
604.545	235
605.548	24
623.491	20
623.518	26
625.498	30
625.522	56
626.496	32
626.507	26
626.528	92
626.561	22
627.523	81
627.551	30
628.51	64
628.541	176
628.57	30
629.537	124
629.558	37
648.506	29
649.508	35
651.533	999
652.501	22
652.577	30
653.551	652
654.559	39
655.541	16
669.546	16
671.547	16
677.521	16
677.554	79
677.589	13
679.545	6
679.591	18
769.638	5
781.634	7
807.671	5
821.638	4
821.692	7
835.685	4
867.76	4
890.767	17
908.774	30
908.8	26
915.751	14
915.79	45
925.762	18
925.794	35
925.806	28
925.815	28
925.823	24
933.762	99
933.787	221
933.812	109
933.843	20
934.784	25
950.811	512
950.833	156
950.842	121
950.851	78
950.873	33
