Mass spectrum: TG 64:16; LC-ESI-QTOF; MS2
Name: TG 64:16
Class:  TAG
Formula: C67H98O6
Exact mass: 999.515
SMILES: CCCCC\C=C/C\C=C/C\C=C/C\C=C/CCCC(=O)OCC(COC(=O)CC\C=C/C\C=C/C\C=C/C\C=C/C\C=C/C\C=C/CC)OC(=O)CC\C=C/C\C=C/C\C=C/C\C=C/C\C=C/C\C=C/CC
InChI: InChI=1S/C67H98O6/c1-4-7-10-13-16-19-22-25-28-31-33-36-39-42-45-48-51-54-57-60-66(69)72-63-64(62-71-65(68)59-56-53-50-47-44-41-38-35-30-27-24-21-18-15-12-9-6-3)73-67(70)61-58-55-52-49-46-43-40-37-34-32-29-26-23-20-17-14-11-8-5-2/h7-8,10-11,16-21,25-30,33-34,36-38,41-43,45-47,50-52,54-55,64H,4-6,9,12-15,22-24,31-32,35,39-40,44,48-49,53,56-63H2,1-3H3/b10-7-,11-8-,19-16-,20-17-,21-18-,28-25-,29-26-,30-27-,36-33-,37-34-,41-38-,45-42-,46-43-,50-47-,54-51-,55-52-
Instrument: AB Sciex TripleTOF 5600+ system (Q-TOF) equipped with a DuoSpray ion source
Instrument type: LC-ESI-QTOF
Ms type: MS2
Ion mode: POSITIVE
Collision energy: 45V
Column name: Acquity UPLC Peptide BEH C18 column (50*2.1 mm; 1.7 um; 130A)(Waters Co.,Milford, MA, USA)
Retention time: 13.80881
Precursor type: [M+NH4]+
Precursor m/z: 1016.775
Intensity: 555
m/z	relative intensity
79.053	32
91.055	66
95.087	23
105.073	31
117.071	23
119.091	31
121.099	34
133.105	25
143.084	32
157.103	31
159.115	23
161.136	23
171.121	57
175.147	40
183.117	26
185.133	27
189.171	23
197.129	23
199.146	27
201.164	45
203.172	37
203.183	73
209.129	23
211.147	25
213.169	33
215.179	23
223.151	25
227.179	29
269.226	43
283.244	11
287.222	12
287.251	20
291.208	12
292.955	9
293.205	15
293.233	51
305.236	10
309.218	14
311.224	27
311.249	39
325.213	10
351.237	27
361.276	31
367.262	15
385.275	259
415.3	9
439.273	15
597.445	14
597.497	43
602.518	12
619.431	15
619.456	86
619.488	59
645.458	15
645.507	25
647.502	30
667.446	40
667.464	22
667.484	47
669.423	25
669.475	27
669.495	78
669.529	21
671.465	100
671.504	999
671.532	204
671.541	89
671.552	46
672.491	12
672.524	20
673.489	11
673.539	17
693.502	7
695.494	317
695.515	121
695.524	92
695.535	65
695.547	37
695.565	15
696.499	11
697.52	22
849.749	8
852.707	30
852.767	11
947.632	35
947.676	601
947.714	878
947.744	564
947.786	58
947.818	22
948.674	25
948.72	35
999.705	30
999.737	35
999.765	39
1016.688	73
1016.718	140
1016.752	282
1016.788	246
1016.815	91
1016.827	56
1016.845	32
1016.896	15
1017.797	22
