Mass spectrum: TG 48:4; LC-ESI-QTOF; MS2
Name: TG 48:4
Class:  TAG
Formula: C51H90O6
Exact mass: 799.275
SMILES: CCCCCCCCCCCC(=O)OCC(COC(=O)CCCCCCCCC\C=C/C=C\C=C/CC)OC(=O)CCCCCCCCC\C=C/CCCCCC
InChI: InChI=1S/C51H90O6/c1-4-7-10-13-16-19-21-23-25-27-29-32-35-38-41-44-50(53)56-47-48(46-55-49(52)43-40-37-34-31-18-15-12-9-6-3)57-51(54)45-42-39-36-33-30-28-26-24-22-20-17-14-11-8-5-2/h7,10,13,16,19-22,48H,4-6,8-9,11-12,14-15,17-18,23-47H2,1-3H3/b10-7-,16-13-,21-19-,22-20-
Instrument: AB Sciex TripleTOF 5600+ system (Q-TOF) equipped with a DuoSpray ion source
Instrument type: LC-ESI-QTOF
Ms type: MS2
Ion mode: POSITIVE
Collision energy: 45V
Column name: Acquity UPLC Peptide BEH C18 column (50*2.1 mm; 1.7 um; 130A)(Waters Co.,Milford, MA, USA)
Retention time: 13.72769
Precursor type: [M+NH4]+
Precursor m/z: 816.7083
Intensity: 1244
m/z	relative intensity
107.087	95
109.1	102
163.152	102
184.073	119
207.173	95
226.987	119
245.226	102
261.222	198
268.997	119
311.261	102
313.278	190
337.276	190
339.291	47
517.406	169
517.429	150
519.426	534
519.444	999
521.456	291
543.436	262
545.458	286
547.466	193
547.504	143
549.489	119
570.966	78
571.458	386
573.476	167
575.493	463
575.518	288
599.497	243
599.522	336
601.52	155
799.695	159
816.609	47
816.673	167
816.721	312
817.596	107
