Mass spectrum: AC 18:1; LC-ESI-QTOF; MS2
Name: AC 18:1
Class:  AcylCarnitine
Formula: C25H48NO4
Exact mass: 426.662
SMILES: CCCCCC\C=C/CCCCCCCCCC(=O)OC(CC(O)=O)C[N+](C)(C)C
InChI: InChI=1S/C25H47NO4/c1-5-6-7-8-9-10-11-12-13-14-15-16-17-18-19-20-25(29)30-23(21-24(27)28)22-26(2,3)4/h10-11,23H,5-9,12-22H2,1-4H3/p+1/b11-10-
Instrument: AB Sciex TripleTOF 5600+ system (Q-TOF) equipped with a DuoSpray ion source
Instrument type: LC-ESI-QTOF
Ms type: MS2
Ion mode: POSITIVE
Collision energy: 45V
Column name: Acquity UPLC Peptide BEH C18 column (50*2.1 mm; 1.7 um; 130A)(Waters Co.,Milford, MA, USA)
Retention time: 6.211689
Precursor type: [M+H]+
Precursor m/z: 426.3577
Intensity: 7007
m/z	relative intensity
81.07	15
83.087	13
84.08	31
85.028	999
93.07	21
95.084	15
97.099	18
129.083	12
135.117	13
144.095	30
144.106	27
163.147	12
265.254	22
283.192	9
297.209	9
307.266	6
311.23	9
367.289	39
426.36	389
426.394	12
