Mass spectrum: TG 53:2; LC-ESI-QTOF; MS2
Name: TG 53:2
Class:  TAG
Formula: C56H104O6
Exact mass: 873.442
SMILES: CCCCCCCCCCCCCCCC(=O)OCC(COC(=O)CCCCCCC\C=C/CCCCCCCCC)OC(=O)CCCCCCCCC\C=C/CCCCCC
InChI: InChI=1S/C56H104O6/c1-4-7-10-13-16-19-22-25-27-29-31-34-37-40-43-46-49-55(58)61-52-53(51-60-54(57)48-45-42-39-36-33-30-24-21-18-15-12-9-6-3)62-56(59)50-47-44-41-38-35-32-28-26-23-20-17-14-11-8-5-2/h20,23,27,29,53H,4-19,21-22,24-26,28,30-52H2,1-3H3/b23-20-,29-27-
Instrument: AB Sciex TripleTOF 5600+ system (Q-TOF) equipped with a DuoSpray ion source
Instrument type: LC-ESI-QTOF
Ms type: MS2
Ion mode: POSITIVE
Collision energy: 45V
Column name: Acquity UPLC Peptide BEH C18 column (50*2.1 mm; 1.7 um; 130A)(Waters Co.,Milford, MA, USA)
Retention time: 15.0108
Precursor type: [M+NH4]+
Precursor m/z: 890.8155
Intensity: 350
m/z	relative intensity
85.1	36
95.084	36
186.99	66
226.989	92
239.235	29
253.25	36
254.984	36
263.236	46
265.252	79
269.004	64
279.256	29
316.922	66
319.271	27
327.301	38
339.288	27
355.328	46
390.984	29
396.906	33
561.486	66
563.502	94
575.476	68
575.505	414
575.533	83
577.511	236
577.527	186
589.509	286
589.539	120
591.519	659
591.544	999
592.538	64
593.53	149
593.548	384
593.567	216
593.592	73
603.533	792
605.552	92
617.538	500
617.561	613
619.562	46
631.553	110
684.918	18
704.931	18
716.96	20
728.955	20
744.966	20
782.898	27
855.804	18
866.953	18
873.78	48
890.623	38
890.735	55
890.793	232
890.815	175
890.843	149
