Mass spectrum: TG 54:0; LC-ESI-QTOF; MS2
Name: TG 54:0
Class:  TAG
Formula: C57H110O6
Exact mass: 891.501
SMILES: CCCCCCCCCCCCCCCCCCCCCC(=O)OCC(COC(=O)CCCCCCCCCCCCCCC)OC(=O)CCCCCCCCCCCCCCC
InChI: InChI=1S/C57H110O6/c1-4-7-10-13-16-19-22-25-26-27-28-29-30-33-35-38-41-44-47-50-56(59)62-53-54(63-57(60)51-48-45-42-39-36-32-24-21-18-15-12-9-6-3)52-61-55(58)49-46-43-40-37-34-31-23-20-17-14-11-8-5-2/h54H,4-53H2,1-3H3
Instrument: AB Sciex TripleTOF 5600+ system (Q-TOF) equipped with a DuoSpray ion source
Instrument type: LC-ESI-QTOF
Ms type: MS2
Ion mode: POSITIVE
Collision energy: 45V
Column name: Acquity UPLC Peptide BEH C18 column (50*2.1 mm; 1.7 um; 130A)(Waters Co.,Milford, MA, USA)
Retention time: 16.09731
Precursor type: [M+NH4]+
Precursor m/z: 908.8624
Intensity: 525
m/z	relative intensity
83.085	20
95.084	20
109.1	27
111.118	13
186.998	27
239.228	13
254.988	13
266.258	15
267.267	33
267.286	13
268.997	40
292.957	33
430.969	13
551.489	90
551.502	41
551.51	68
551.52	40
579.503	41
579.515	54
579.523	76
579.535	117
579.545	47
579.552	54
579.562	33
607.557	999
607.576	341
607.585	174
635.573	89
635.589	372
635.606	158
635.62	103
635.63	47
691.677	15
908.761	68
908.818	54
908.852	34
908.88	27
908.901	27
