Mass spectrum: TG 50:4; LC-ESI-QTOF; MS2
Name: TG 50:4
Class:  TAG
Formula: C53H94O6
Exact mass: 827.329
SMILES: CCCCCCCCCCCCCC(=O)OCC(COC(=O)CCCCCCCC\C=C/C=C\CCCCC)OC(=O)CCCCCCCC\C=C/C=C\CCCCC
InChI: InChI=1S/C53H94O6/c1-4-7-10-13-16-19-22-24-26-28-31-34-37-40-43-46-52(55)58-49-50(48-57-51(54)45-42-39-36-33-30-21-18-15-12-9-6-3)59-53(56)47-44-41-38-35-32-29-27-25-23-20-17-14-11-8-5-2/h16-17,19-20,22-25,50H,4-15,18,21,26-49H2,1-3H3/b19-16-,20-17-,24-22-,25-23-
Instrument: AB Sciex TripleTOF 5600+ system (Q-TOF) equipped with a DuoSpray ion source
Instrument type: LC-ESI-QTOF
Ms type: MS2
Ion mode: POSITIVE
Collision energy: 45V
Column name: Acquity UPLC Peptide BEH C18 column (50*2.1 mm; 1.7 um; 130A)(Waters Co.,Milford, MA, USA)
Retention time: 14.00036
Precursor type: [M+NH4]+
Precursor m/z: 844.7374
Intensity: 4154
m/z	relative intensity
79.054	6
81.068	14
83.083	10
95.085	12
97.101	7
109.1	6
111.116	5
121.101	17
123.113	7
135.118	10
137.132	4
149.135	5
161.133	5
163.146	8
175.144	6
219.208	10
237.221	39
245.226	11
263.237	38
268.996	4
292.959	3
293.243	1
311.259	32
319.269	5
335.249	2
337.274	14
339.285	1
351.006	1
374.95	1
390.998	2
401.336	1
433.008	2
435.009	1
499.444	2
517.45	3
543.444	5
545.421	2
545.447	12
545.465	12
545.48	6
545.769	2
547.47	530
548.471	19
567.45	2
569.45	6
571.46	4
571.706	3
573.487	999
574.48	13
574.508	15
575.498	12
599.48	12
599.505	24
599.521	11
601.488	2
601.514	15
601.531	8
809.674	3
809.723	5
823.627	6
823.664	36
823.692	60
823.715	9
824.684	2
827.691	13
827.712	26
827.743	6
844.701	9
844.714	16
844.734	66
844.758	30
844.787	8
