Mass spectrum: TG 60:13; LC-ESI-QTOF; MS2
Name: TG 60:13
Class:  TAG
Formula: C63H96O6
Exact mass: 949.455
SMILES: CCCCC\C=C/C\C=C/C\C=C/C\C=C/CCCC(=O)OCC(COC(=O)CCC\C=C/C\C=C/C\C=C/C\C=C/C\C=C/CC)OC(=O)CCC\C=C/C\C=C/C\C=C/C\C=C/CCCCC
InChI: InChI=1S/C63H96O6/c1-4-7-10-13-16-19-22-25-28-31-34-37-40-43-46-49-52-55-61(64)67-58-60(69-63(66)57-54-51-48-45-42-39-36-33-30-27-24-21-18-15-12-9-6-3)59-68-62(65)56-53-50-47-44-41-38-35-32-29-26-23-20-17-14-11-8-5-2/h7,10,16-21,25-30,34-39,43-48,60H,4-6,8-9,11-15,22-24,31-33,40-42,49-59H2,1-3H3/b10-7-,19-16-,20-17-,21-18-,28-25-,29-26-,30-27-,37-34-,38-35-,39-36-,46-43-,47-44-,48-45-
Instrument: AB Sciex TripleTOF 5600+ system (Q-TOF) equipped with a DuoSpray ion source
Instrument type: LC-ESI-QTOF
Ms type: MS2
Ion mode: POSITIVE
Collision energy: 45V
Column name: Acquity UPLC Peptide BEH C18 column (50*2.1 mm; 1.7 um; 130A)(Waters Co.,Milford, MA, USA)
Retention time: 13.76097
Precursor type: [M+NH4]+
Precursor m/z: 966.7561
Intensity: 706
m/z	relative intensity
81.069	104
91.051	103
93.069	115
105.069	104
119.083	77
121.104	77
133.103	90
159.117	77
161.138	77
171.115	77
173.13	70
175.154	78
183.116	90
185.135	106
199.151	64
201.16	195
211.149	64
262.972	144
262.985	277
263.241	64
267.209	132
285.221	64
292.965	51
293.22	81
311.231	90
311.254	77
337.272	235
337.287	144
344.983	354
345.002	91
359.263	38
361.28	55
385.276	141
390.99	64
426.977	29
508.985	64
593.007	29
621.473	630
621.503	800
621.534	55
623.51	38
645.503	77
647.473	222
647.5	999
647.529	345
647.552	104
669.481	351
695.504	51
755.591	25
865.674	25
884.679	77
884.773	32
949.718	157
949.759	64
966.568	128
966.653	78
966.708	238
966.745	761
966.783	249
966.806	122
967.755	91
