Mass spectrum: TG 48:4; LC-ESI-QTOF; MS2
Name: TG 48:4
Class:  TAG
Formula: C51H90O6
Exact mass: 799.275
SMILES: CCCCCCCCCCCC(=O)OCC(COC(=O)CCCCCCCCC\C=C/C=C\C=C/CC)OC(=O)CCCCCCCCC\C=C/CCCCCC
InChI: InChI=1S/C51H90O6/c1-4-7-10-13-16-19-21-23-25-27-29-32-35-38-41-44-50(53)56-47-48(46-55-49(52)43-40-37-34-31-18-15-12-9-6-3)57-51(54)45-42-39-36-33-30-28-26-24-22-20-17-14-11-8-5-2/h7,10,13,16,19-22,48H,4-6,8-9,11-12,14-15,17-18,23-47H2,1-3H3/b10-7-,16-13-,21-19-,22-20-
Instrument: AB Sciex TripleTOF 5600+ system (Q-TOF) equipped with a DuoSpray ion source
Instrument type: LC-ESI-QTOF
Ms type: MS2
Ion mode: POSITIVE
Collision energy: 45V
Column name: Acquity UPLC Peptide BEH C18 column (50*2.1 mm; 1.7 um; 130A)(Waters Co.,Milford, MA, USA)
Retention time: 13.72812
Precursor type: [M+NH4]+
Precursor m/z: 816.7067
Intensity: 3069
m/z	relative intensity
81.069	40
83.085	19
93.069	20
95.083	39
97.097	11
107.087	12
109.1	31
111.115	10
121.1	20
123.118	18
135.121	16
149.131	10
151.148	7
161.126	7
161.135	11
163.147	20
165.161	7
177.165	9
183.175	22
189.159	8
191.181	13
207.175	8
209.189	27
219.217	9
237.221	25
245.218	11
245.231	12
257.214	10
261.22	17
263.229	34
263.243	25
283.227	10
283.245	4
285.231	4
301.247	3
311.249	10
311.263	12
313.275	8
319.257	13
335.266	4
337.258	10
337.277	16
339.288	6
444.927	3
445.415	4
449.355	3
491.417	13
492.404	10
493.42	10
494.408	7
494.432	20
495.434	3
496.426	8
496.454	8
517.419	42
517.438	35
519.441	999
520.448	29
521.461	38
543.437	13
545.456	624
546.45	9
547.464	41
547.484	30
549.484	4
550.504	10
571.465	20
573.486	594
573.538	15
574.471	11
574.508	16
575.475	11
575.503	46
575.528	23
599.47	42
599.505	351
599.553	9
601.497	10
601.521	30
687.62	2
701.588	6
715.574	3
781.651	5
781.7	7
799.638	9
799.667	41
799.691	42
816.601	2
816.678	14
816.696	31
816.715	59
816.753	14
817.721	4
