Mass spectrum: PG 38:6; LC-ESI-QTOF; MS2
Name: PG 38:6
Class:  PG
Formula: C44H75O10P
Exact mass: 795.05
SMILES: CCCCCCCCCCCCCCCC(=O)OCC(COP(O)(=O)OCC(O)CO)OC(=O)CC\C=C/C\C=C/C\C=C/C\C=C/C\C=C/C\C=C/CC
InChI: InChI=1S/C44H75O10P/c1-3-5-7-9-11-13-15-17-18-19-20-21-22-24-26-28-30-32-34-36-44(48)54-42(40-53-55(49,50)52-38-41(46)37-45)39-51-43(47)35-33-31-29-27-25-23-16-14-12-10-8-6-4-2/h5,7,11,13,17-18,20-21,24,26,30,32,41-42,45-46H,3-4,6,8-10,12,14-16,19,22-23,25,27-29,31,33-40H2,1-2H3,(H,49,50)/b7-5-,13-11-,18-17-,21-20-,26-24-,32-30-
Instrument: AB Sciex TripleTOF 5600+ system (Q-TOF) equipped with a DuoSpray ion source
Instrument type: LC-ESI-QTOF
Ms type: MS2
Ion mode: POSITIVE
Collision energy: 45V
Column name: Acquity UPLC Peptide BEH C18 column (50*2.1 mm; 1.7 um; 130A)(Waters Co.,Milford, MA, USA)
Retention time: 8.291667
Precursor type: [M+NH4]+
Precursor m/z: 812.542
Intensity: 25290
m/z	relative intensity
71.084	5
77.038	2
79.053	6
81.07	9
83.084	3
85.102	5
91.053	8
93.07	7
95.084	13
97.101	2
105.069	6
107.085	3
109.101	6
117.068	3
119.085	6
121.101	2
123.115	2
129.07	2
131.085	6
133.1	4
143.086	3
145.101	5
155.086	2
157.102	3
159.116	6
161.131	3
169.101	3
171.116	7
173.133	4
183.119	2
185.13	4
187.147	2
197.132	3
199.152	2
201.164	4
211.148	2
213.162	2
227.18	2
239.236	16
269.224	2
273.181	0
281.2	0
283.17	0
293.221	3
293.237	1
297.281	0
311.238	6
311.264	1
313.272	58
341.269	1
349.255	1
367.261	4
367.282	3
383.256	1
385.272	16
393.237	1
421.322	0
433.354	0
449.252	1
449.268	2
467.283	0
521.258	0
621.526	1
621.553	2
621.587	1
622.693	0
623.221	0
623.502	999
624.335	0
624.491	0
624.531	1
627.533	0
759.492	0
759.536	0
777.519	0
795.49	1
795.53	1
812.507	0
812.568	0
812.637	0
