Mass spectrum: TG 60:12; LC-ESI-QTOF; MS2
Name: TG 60:12
Class:  TAG
Formula: C63H98O6
Exact mass: 951.471
SMILES: CCCCCC\C=C/CCCCCCCCCC(=O)OCC(COC(=O)CC\C=C/C\C=C/C\C=C/C\C=C/C\C=C/C\C=C/CC)OC(=O)CCC\C=C/C\C=C/C\C=C/C\C=C/C\C=C/CC
InChI: InChI=1S/C63H98O6/c1-4-7-10-13-16-19-22-25-28-30-31-33-35-38-41-44-47-50-53-56-62(65)68-59-60(58-67-61(64)55-52-49-46-43-40-37-34-27-24-21-18-15-12-9-6-3)69-63(66)57-54-51-48-45-42-39-36-32-29-26-23-20-17-14-11-8-5-2/h7-8,10-11,16-17,19-21,24-26,28-29,31,33,36,38-39,41,45,47-48,50,60H,4-6,9,12-15,18,22-23,27,30,32,34-35,37,40,42-44,46,49,51-59H2,1-3H3/b10-7-,11-8-,19-16-,20-17-,24-21-,28-25-,29-26-,33-31-,39-36-,41-38-,48-45-,50-47-
Instrument: AB Sciex TripleTOF 5600+ system (Q-TOF) equipped with a DuoSpray ion source
Instrument type: LC-ESI-QTOF
Ms type: MS2
Ion mode: POSITIVE
Collision energy: 45V
Column name: Acquity UPLC Peptide BEH C18 column (50*2.1 mm; 1.7 um; 130A)(Waters Co.,Milford, MA, USA)
Retention time: 13.92625
Precursor type: [M+NH4]+
Precursor m/z: 968.7672
Intensity: 4720
m/z	relative intensity
81.068	36
91.053	47
93.07	25
95.087	33
105.069	28
107.085	21
109.1	24
117.07	24
119.085	25
121.1	20
131.084	28
133.102	24
135.118	24
140.067	13
145.096	21
147.119	14
149.133	13
157.096	13
159.116	23
161.133	21
163.149	21
169.096	21
169.108	13
171.118	44
173.128	32
175.147	31
183.116	31
185.128	36
185.139	14
187.109	15
187.149	25
197.132	27
199.147	46
201.161	73
203.178	36
203.187	16
209.134	13
211.149	35
213.161	24
215.176	16
223.148	15
225.164	20
227.177	25
263.232	16
265.193	17
265.248	19
267.205	51
269.223	42
281.216	7
283.205	10
283.24	9
285.218	25
285.235	11
287.237	15
291.211	7
293.223	35
293.237	18
309.216	7
311.238	57
313.272	21
335.254	8
337.274	121
339.288	282
359.262	7
361.273	12
367.274	10
383.259	6
385.273	54
391.0	7
391.27	5
391.295	8
393.301	17
499.364	5
549.464	7
595.458	9
597.476	8
621.487	15
621.511	5
623.497	999
623.531	100
624.494	26
624.53	5
625.517	20
625.559	4
645.483	9
647.502	276
649.482	37
649.517	549
650.52	21
667.543	6
669.477	92
669.512	34
671.489	33
671.51	31
671.532	9
685.489	4
695.477	11
695.513	22
697.524	8
824.657	6
841.636	3
849.684	5
859.644	4
859.704	4
886.671	10
886.695	52
900.708	10
933.728	10
941.684	8
941.75	16
951.705	31
951.744	61
951.782	24
968.685	41
968.731	130
968.766	355
968.81	45
969.754	10
