Mass spectrum: TG 54:7; LC-ESI-QTOF; MS2
Name: TG 54:7
Class:  TAG
Formula: C57H96O6
Exact mass: 877.389
SMILES: CCCCCCCCCCCCCCCC(=O)OCC(COC(=O)CCC\C=C/C\C=C/C\C=C/C\C=C/C\C=C/CC)OC(=O)CCCCCCCC\C=C/C=C\CCCCC
InChI: InChI=1S/C57H96O6/c1-4-7-10-13-16-19-22-25-27-28-30-32-35-38-41-44-47-50-56(59)62-53-54(52-61-55(58)49-46-43-40-37-34-31-24-21-18-15-12-9-6-3)63-57(60)51-48-45-42-39-36-33-29-26-23-20-17-14-11-8-5-2/h7,10,16-17,19-20,23,25-27,30,32,38,41,54H,4-6,8-9,11-15,18,21-22,24,28-29,31,33-37,39-40,42-53H2,1-3H3/b10-7-,19-16-,20-17-,26-23-,27-25-,32-30-,41-38-
Instrument: AB Sciex TripleTOF 5600+ system (Q-TOF) equipped with a DuoSpray ion source
Instrument type: LC-ESI-QTOF
Ms type: MS2
Ion mode: POSITIVE
Collision energy: 45V
Column name: Acquity UPLC Peptide BEH C18 column (50*2.1 mm; 1.7 um; 130A)(Waters Co.,Milford, MA, USA)
Retention time: 14.03311
Precursor type: [M+NH4]+
Precursor m/z: 894.7571
Intensity: 6201
m/z	relative intensity
71.084	7
79.055	10
81.069	18
83.083	10
91.053	15
95.085	25
105.071	9
107.083	10
109.1	20
117.073	7
119.085	11
121.1	12
123.118	14
131.083	14
133.101	14
135.115	12
145.102	12
157.102	9
159.114	14
161.132	11
163.148	7
171.117	16
173.127	12
173.137	7
175.147	19
183.117	12
185.133	17
187.149	20
189.163	10
197.134	16
199.148	18
201.162	63
211.15	16
225.161	10
239.237	19
243.212	7
245.222	7
257.224	10
263.229	12
263.242	24
267.21	91
283.212	6
285.181	2
285.222	97
287.241	2
293.227	1
295.239	3
311.245	6
311.27	3
313.273	128
319.255	4
319.268	6
335.251	4
337.274	85
339.293	3
341.245	5
341.261	3
359.255	3
367.284	7
391.288	4
423.35	2
437.37	2
523.447	3
529.439	3
547.447	3
547.463	7
549.462	6
549.486	24
549.514	8
565.45	2
573.465	6
573.489	18
573.527	2
573.707	3
574.518	3
575.503	999
576.485	5
576.511	26
577.497	6
579.515	2
593.457	2
595.463	15
595.487	6
596.473	3
597.485	207
597.51	60
597.539	3
598.491	8
599.52	3
600.508	3
601.524	3
602.523	2
603.544	3
615.491	4
620.462	3
621.485	260
622.489	5
622.518	3
623.481	5
623.507	9
625.525	4
637.497	3
639.495	3
649.512	4
727.59	1
741.627	1
753.603	1
767.641	1
793.652	1
795.661	2
807.633	1
812.652	3
812.692	3
859.683	3
859.73	4
859.78	3
876.66	14
876.716	244
876.761	50
877.736	49
878.727	2
894.659	4
894.704	16
894.748	135
894.777	83
894.864	1
895.761	6
895.81	1
