Mass spectrum: TG 58:7; LC-ESI-QTOF; MS2
Name: TG 58:7
Class:  TAG
Formula: C61H104O6
Exact mass: 933.497
SMILES: CCCCCCCCCCCCCCCCCC(=O)OCC(COC(=O)CC\C=C/C\C=C/C\C=C/C\C=C/C\C=C/C\C=C/CC)OC(=O)CCCCCCCCC\C=C/CCCCCC
InChI: InChI=1S/C61H104O6/c1-4-7-10-13-16-19-22-25-28-29-30-31-34-36-39-42-45-48-51-54-60(63)66-57-58(67-61(64)55-52-49-46-43-40-37-33-27-24-21-18-15-12-9-6-3)56-65-59(62)53-50-47-44-41-38-35-32-26-23-20-17-14-11-8-5-2/h7,10,16,19,21,24-25,28,30-31,36,39,45,48,58H,4-6,8-9,11-15,17-18,20,22-23,26-27,29,32-35,37-38,40-44,46-47,49-57H2,1-3H3/b10-7-,19-16-,24-21-,28-25-,31-30-,39-36-,48-45-
Instrument: AB Sciex TripleTOF 5600+ system (Q-TOF) equipped with a DuoSpray ion source
Instrument type: LC-ESI-QTOF
Ms type: MS2
Ion mode: POSITIVE
Collision energy: 45V
Column name: Acquity UPLC Peptide BEH C18 column (50*2.1 mm; 1.7 um; 130A)(Waters Co.,Milford, MA, USA)
Retention time: 14.54353
Precursor type: [M+NH4]+
Precursor m/z: 950.8149
Intensity: 3624
m/z	relative intensity
81.07	57
91.055	28
95.083	33
109.104	45
121.106	36
123.119	41
137.129	37
145.1	28
159.119	41
163.145	32
171.116	40
173.134	42
175.146	46
187.153	28
199.148	49
201.159	35
201.173	32
203.184	25
215.181	82
225.164	24
229.192	28
245.227	24
247.248	29
263.234	45
265.247	49
267.265	25
285.222	16
295.224	24
295.238	62
295.252	53
311.235	20
313.254	216
313.281	32
337.267	33
337.283	62
339.285	108
341.274	24
341.304	29
367.263	16
367.329	16
369.281	78
574.472	24
575.474	45
575.499	216
575.525	58
577.509	23
597.484	111
598.474	70
598.492	41
598.516	40
601.508	45
601.536	29
603.529	923
603.549	418
604.528	54
605.55	95
623.508	24
625.502	41
625.529	33
627.527	24
628.543	24
629.568	37
648.503	24
649.513	254
649.536	78
651.529	690
651.557	340
651.591	29
652.544	40
653.51	46
653.542	379
653.596	41
677.513	29
677.54	137
770.947	9
809.656	12
825.707	13
853.701	43
853.748	45
853.807	9
854.717	999
854.747	702
855.781	12
863.697	12
868.713	33
868.77	29
905.766	18
915.777	40
933.765	162
933.796	149
933.818	103
933.849	25
936.723	78
936.792	29
950.752	33
950.781	109
950.807	337
950.851	214
951.805	29
