Mass spectrum: TG 55:4; LC-ESI-QTOF; MS2
Name: TG 55:4
Class:  TAG
Formula: C58H104O6
Exact mass: 897.4639999999999
SMILES: CCCCCCCCC\C=C/CCCCCCCC(=O)OCC(COC(=O)CCCCCCCCC\C=C/CCCCCC)OC(=O)CCCCCCCC\C=C/C=C\CCCCC
InChI: InChI=1S/C58H104O6/c1-4-7-10-13-16-19-22-25-28-31-33-36-39-42-45-48-51-57(60)63-54-55(64-58(61)52-49-46-43-40-37-34-30-27-24-21-18-15-12-9-6-3)53-62-56(59)50-47-44-41-38-35-32-29-26-23-20-17-14-11-8-5-2/h18,20-21,23-24,27-28,31,55H,4-17,19,22,25-26,29-30,32-54H2,1-3H3/b21-18-,23-20-,27-24-,31-28-
Instrument: AB Sciex TripleTOF 5600+ system (Q-TOF) equipped with a DuoSpray ion source
Instrument type: LC-ESI-QTOF
Ms type: MS2
Ion mode: POSITIVE
Collision energy: 45V
Column name: Acquity UPLC Peptide BEH C18 column (50*2.1 mm; 1.7 um; 130A)(Waters Co.,Milford, MA, USA)
Retention time: 14.70967
Precursor type: [M+NH4]+
Precursor m/z: 914.8122
Intensity: 3622
m/z	relative intensity
80.946	6
81.069	23
83.084	19
93.068	7
95.085	15
97.102	10
109.101	10
123.117	12
135.119	10
163.149	12
165.161	11
175.151	9
245.224	27
263.236	68
265.254	30
279.27	40
293.289	3
301.209	33
302.21	20
319.26	15
325.28	3
335.296	7
337.274	12
339.274	7
339.289	23
340.101	3
353.285	11
353.32	10
355.322	7
367.315	6
375.243	4
429.369	3
573.494	17
575.497	14
575.524	12
576.497	15
587.484	20
587.495	17
587.502	14
587.511	39
589.515	35
591.513	9
591.523	11
591.541	35
592.488	11
592.505	44
597.483	17
599.478	20
599.503	108
599.525	14
601.518	840
603.517	22
603.549	28
611.503	33
613.518	34
614.479	9
615.514	107
615.533	742
617.488	9
617.547	739
617.567	152
619.567	15
623.504	22
625.516	9
627.543	11
629.539	22
629.558	33
637.519	18
641.547	10
643.566	15
829.697	9
829.714	60
829.747	25
830.738	4
831.734	35
831.767	5
832.67	4
832.703	22
832.711	40
832.719	46
832.737	179
832.778	27
855.753	28
856.719	14
856.755	8
870.73	4
879.786	19
893.728	167
893.755	999
893.842	13
894.748	12
897.763	33
897.798	79
897.832	12
914.711	12
914.78	38
914.788	42
914.802	109
914.822	158
914.839	38
914.856	24
