Mass spectrum: BMP 38:6; LC-ESI-QTOF; MS2
Name: BMP 38:6
Class:  BMP
Formula: C44H75O10P
Exact mass: 795.05
SMILES: CCCCCCCC\C=C/CCCCCCCC(=O)OC(CO)COP(O)(=O)OCC(CO)OC(=O)CCC\C=C/C\C=C/C\C=C/C\C=C/C\C=C/CC
InChI: InChI=1S/C44H75O10P/c1-3-5-7-9-11-13-15-17-19-20-22-24-26-28-30-32-34-36-44(48)54-42(38-46)40-52-55(49,50)51-39-41(37-45)53-43(47)35-33-31-29-27-25-23-21-18-16-14-12-10-8-6-4-2/h5,7,11,13,17-19,21-22,24,28,30,41-42,45-46H,3-4,6,8-10,12,14-16,20,23,25-27,29,31-40H2,1-2H3,(H,49,50)/b7-5-,13-11-,19-17-,21-18-,24-22-,30-28-
Instrument: AB Sciex TripleTOF 5600+ system (Q-TOF) equipped with a DuoSpray ion source
Instrument type: LC-ESI-QTOF
Ms type: MS2
Ion mode: POSITIVE
Collision energy: 45V
Column name: Acquity UPLC Peptide BEH C18 column (50*2.1 mm; 1.7 um; 130A)(Waters Co.,Milford, MA, USA)
Retention time: 7.92648
Precursor type: [M+NH4]+
Precursor m/z: 812.543
Intensity: 1609
m/z	relative intensity
81.068	17
91.054	17
93.069	23
105.07	20
109.1	13
119.085	16
171.115	16
175.145	26
187.142	13
203.171	13
203.179	41
245.232	13
263.231	20
269.228	20
287.231	10
287.255	7
305.053	7
336.216	24
337.262	229
337.274	999
337.304	16
341.31	11
360.317	30
360.331	13
360.345	13
361.27	344
361.28	122
361.285	98
361.29	75
441.286	6
597.403	11
623.491	16
753.491	6
759.502	6
812.527	7
