Mass spectrum: TG 56:5; LC-ESI-QTOF; MS2
Name: TG 56:5
Class:  TAG
Formula: C59H104O6
Exact mass: 909.475
SMILES: CCCCCCCC\C=C/CCCCCCCCCC(=O)OCC(COC(=O)CCCCCCCC\C=C/C=C\CCCCC)OC(=O)CCCCCCCC\C=C/C=C\CCCCC
InChI: InChI=1S/C59H104O6/c1-4-7-10-13-16-19-22-25-28-29-32-34-37-40-43-46-49-52-58(61)64-55-56(65-59(62)53-50-47-44-41-38-35-31-27-24-21-18-15-12-9-6-3)54-63-57(60)51-48-45-42-39-36-33-30-26-23-20-17-14-11-8-5-2/h17-18,20-21,23-28,56H,4-16,19,22,29-55H2,1-3H3/b20-17-,21-18-,26-23-,27-24-,28-25-
Instrument: AB Sciex TripleTOF 5600+ system (Q-TOF) equipped with a DuoSpray ion source
Instrument type: LC-ESI-QTOF
Ms type: MS2
Ion mode: POSITIVE
Collision energy: 45V
Column name: Acquity UPLC Peptide BEH C18 column (50*2.1 mm; 1.7 um; 130A)(Waters Co.,Milford, MA, USA)
Retention time: 14.31902
Precursor type: [M+NH4]+
Precursor m/z: 926.8138
Intensity: 2601
m/z	relative intensity
339.283	56
597.481	56
599.518	137
600.507	32
601.521	131
602.513	263
604.516	171
606.56	80
627.514	94
629.528	75
645.468	75
670.509	56
877.715	56
878.736	65
880.76	37
901.718	207
903.738	94
909.793	94
913.697	112
913.735	169
913.81	112
926.704	114
926.734	999
926.775	231
926.797	764
926.83	806
926.867	96
927.761	482
