Mass spectrum: TG 60:9; LC-ESI-QTOF; MS2
Name: TG 60:9
Class:  TAG
Formula: C63H104O6
Exact mass: 957.519
SMILES: CCCCCCCC\C=C/CCCCCCCCCC(=O)OC(COC(=O)CCCCCCCC\C=C/C=C\CCCCC)COC(=O)CC\C=C/C\C=C/C\C=C/C\C=C/C\C=C/C\C=C/CC
InChI: InChI=1S/C63H104O6/c1-4-7-10-13-16-19-22-25-28-30-31-33-35-38-41-44-47-50-53-56-62(65)68-59-60(58-67-61(64)55-52-49-46-43-40-37-34-27-24-21-18-15-12-9-6-3)69-63(66)57-54-51-48-45-42-39-36-32-29-26-23-20-17-14-11-8-5-2/h7,10,16,18-19,21,24-29,31,33,38,41,47,50,60H,4-6,8-9,11-15,17,20,22-23,30,32,34-37,39-40,42-46,48-49,51-59H2,1-3H3/b10-7-,19-16-,21-18-,27-24-,28-25-,29-26-,33-31-,41-38-,50-47-
Instrument: AB Sciex TripleTOF 5600+ system (Q-TOF) equipped with a DuoSpray ion source
Instrument type: LC-ESI-QTOF
Ms type: MS2
Ion mode: POSITIVE
Collision energy: 45V
Column name: Acquity UPLC Peptide BEH C18 column (50*2.1 mm; 1.7 um; 130A)(Waters Co.,Milford, MA, USA)
Retention time: 14.51061
Precursor type: [M+NH4]+
Precursor m/z: 974.8141
Intensity: 395
m/z	relative intensity
81.069	70
95.085	51
163.149	51
225.166	40
269.221	50
287.228	20
293.226	81
293.287	40
309.002	20
311.223	50
319.265	20
321.286	20
337.273	53
341.299	30
342.311	40
351.264	20
363.292	20
367.26	20
367.324	53
391.016	20
573.46	33
575.501	103
627.528	61
629.532	842
629.552	999
629.57	507
647.479	185
647.51	237
647.546	40
649.528	33
651.55	50
673.548	50
675.532	100
677.517	91
677.56	236
701.529	20
853.691	30
853.731	40
854.725	100
854.764	50
855.747	20
878.709	61
878.749	80
879.699	101
879.74	343
879.764	184
892.719	70
892.752	73
903.724	115
903.779	50
957.766	90
957.825	100
960.698	50
960.733	236
960.762	184
960.803	100
974.721	50
974.795	329
974.831	216
974.878	70
