Mass spectrum: TG 56:4; LC-ESI-QTOF; MS2
Name: TG 56:4
Class:  TAG
Formula: C59H106O6
Exact mass: 911.491
SMILES: CCCCCC\C=C/CCCCCCCCCC(=O)OCC(COC(=O)CCCCCCCCC\C=C/C\C=C/CCCCC)OC(=O)CCCCCCCCC\C=C/CCCCCC
InChI: InChI=1S/C59H106O6/c1-4-7-10-13-16-19-22-25-28-29-32-34-37-40-43-46-49-52-58(61)64-55-56(65-59(62)53-50-47-44-41-38-35-31-27-24-21-18-15-12-9-6-3)54-63-57(60)51-48-45-42-39-36-33-30-26-23-20-17-14-11-8-5-2/h16,19-21,23-25,28,56H,4-15,17-18,22,26-27,29-55H2,1-3H3/b19-16-,23-20-,24-21-,28-25-
Instrument: AB Sciex TripleTOF 5600+ system (Q-TOF) equipped with a DuoSpray ion source
Instrument type: LC-ESI-QTOF
Ms type: MS2
Ion mode: POSITIVE
Collision energy: 45V
Column name: Acquity UPLC Peptide BEH C18 column (50*2.1 mm; 1.7 um; 130A)(Waters Co.,Milford, MA, USA)
Retention time: 14.89092
Precursor type: [M+NH4]+
Precursor m/z: 928.8304
Intensity: 2255
m/z	relative intensity
71.085	6
79.052	7
81.071	20
83.086	14
95.085	21
97.102	8
109.099	11
111.115	6
121.103	12
123.112	6
133.101	5
135.113	6
135.12	11
149.129	13
163.148	7
175.146	8
203.177	7
245.225	11
247.242	14
263.237	26
265.249	33
268.999	7
269.225	11
273.261	5
287.241	8
291.266	12
293.287	27
317.29	4
319.264	14
337.273	12
339.279	15
339.292	17
339.311	4
349.302	5
363.314	4
365.3	6
367.313	10
573.482	12
573.513	9
575.484	10
575.512	20
577.52	18
598.483	12
599.496	12
601.5	105
601.52	616
602.499	9
602.521	13
603.531	209
603.564	34
604.512	7
604.534	39
604.556	46
606.526	11
606.563	28
607.551	16
624.499	12
625.51	20
625.534	15
626.509	36
626.527	58
626.547	19
628.519	11
628.562	7
629.551	999
630.55	24
630.584	8
631.565	572
631.595	62
632.577	13
651.511	9
652.551	12
655.562	26
655.585	15
657.571	13
657.601	16
706.911	2
720.93	3
771.674	2
813.76	2
893.796	15
908.775	983
909.748	5
909.784	18
909.825	7
911.782	15
911.798	41
911.83	43
928.712	4
928.818	166
928.846	126
928.924	7
929.811	7
929.842	16
