Mass spectrum: TG 56:3; LC-ESI-QTOF; MS2
Name: TG 56:3
Class:  TAG
Formula: C59H108O6
Exact mass: 913.5070000000001
SMILES: CCCCCCCC\C=C/CCCCCCCCCC(=O)OCC(COC(=O)CCCCCCCCC\C=C/CCCCCC)OC(=O)CCCCCCCCC\C=C/CCCCCC
InChI: InChI=1S/C59H108O6/c1-4-7-10-13-16-19-22-25-28-29-32-34-37-40-43-46-49-52-58(61)64-55-56(65-59(62)53-50-47-44-41-38-35-31-27-24-21-18-15-12-9-6-3)54-63-57(60)51-48-45-42-39-36-33-30-26-23-20-17-14-11-8-5-2/h20-21,23-25,28,56H,4-19,22,26-27,29-55H2,1-3H3/b23-20-,24-21-,28-25-
Instrument: AB Sciex TripleTOF 5600+ system (Q-TOF) equipped with a DuoSpray ion source
Instrument type: LC-ESI-QTOF
Ms type: MS2
Ion mode: POSITIVE
Collision energy: 45V
Column name: Acquity UPLC Peptide BEH C18 column (50*2.1 mm; 1.7 um; 130A)(Waters Co.,Milford, MA, USA)
Retention time: 15.22753
Precursor type: [M+NH4]+
Precursor m/z: 930.8449
Intensity: 23891
m/z	relative intensity
71.086	2
79.053	2
81.07	13
83.085	9
85.102	2
93.069	2
95.085	15
97.101	10
107.084	3
109.101	10
111.079	1
111.117	4
121.101	7
123.117	6
125.13	1
135.118	7
137.132	3
149.131	4
151.15	2
161.13	1
163.146	4
165.164	3
175.145	1
177.165	2
179.18	2
191.177	1
193.191	1
205.194	1
239.235	2
245.225	5
247.241	9
263.237	13
265.252	36
267.266	3
273.26	0
275.271	4
275.293	0
282.278	0
291.269	1
293.282	24
295.3	0
303.303	0
310.316	0
313.267	1
313.281	0
319.262	3
319.315	0
321.288	2
321.32	2
323.294	0
335.265	0
337.273	1
337.293	0
339.289	15
341.293	1
341.31	4
347.294	0
349.311	2
365.31	0
367.318	9
369.332	0
369.359	0
393.309	0
395.342	0
395.359	0
529.488	0
529.509	0
547.454	0
547.477	1
547.49	0
549.495	1
555.522	0
557.523	1
566.566	0
573.48	0
573.521	1
575.504	72
577.484	0
577.527	7
601.46	0
601.518	54
601.621	0
601.646	1
602.518	0
603.533	709
604.528	9
605.546	27
606.56	3
607.547	2
607.573	0
608.584	2
609.557	1
617.53	0
617.564	1
625.529	0
626.48	0
626.53	1
627.51	2
627.534	2
627.596	0
628.514	1
628.55	2
629.471	0
629.547	182
630.554	2
631.435	0
631.562	999
632.536	1
632.566	10
632.603	1
633.581	233
634.577	1
634.602	2
647.58	0
655.524	0
655.571	0
657.582	74
658.595	0
659.57	1
659.592	5
659.61	6
675.549	0
685.584	0
685.617	1
685.639	0
687.63	0
703.566	0
731.605	0
758.998	0
769.698	0
773.672	0
783.735	0
787.673	0
801.669	0
815.745	0
895.797	4
895.83	1
895.868	0
911.797	100
912.806	1
913.766	2
913.817	31
913.889	0
914.802	0
914.845	0
927.907	0
927.975	0
930.773	1
930.848	181
930.911	3
931.813	1
931.835	1
931.858	2
931.883	0
