Mass spectrum: TG 52:6; LC-ESI-QTOF; MS2
Name: TG 52:6
Class:  TAG
Formula: C55H94O6
Exact mass: 851.3509999999999
SMILES: CCCCCCCC\C=C/CCCCCC(=O)OCC(COC(=O)CCCCCCCCC\C=C/C=C\C=C/CC)OC(=O)CCCCCCCC\C=C/C=C\CCCCC
InChI: InChI=1S/C55H94O6/c1-4-7-10-13-16-19-22-25-27-30-33-36-39-42-45-48-54(57)60-51-52(50-59-53(56)47-44-41-38-35-32-29-24-21-18-15-12-9-6-3)61-55(58)49-46-43-40-37-34-31-28-26-23-20-17-14-11-8-5-2/h7,10,13,16-17,19-20,22-23,26,29,32,52H,4-6,8-9,11-12,14-15,18,21,24-25,27-28,30-31,33-51H2,1-3H3/b10-7-,16-13-,20-17-,22-19-,26-23-,32-29-
Instrument: AB Sciex TripleTOF 5600+ system (Q-TOF) equipped with a DuoSpray ion source
Instrument type: LC-ESI-QTOF
Ms type: MS2
Ion mode: POSITIVE
Collision energy: 45V
Column name: Acquity UPLC Peptide BEH C18 column (50*2.1 mm; 1.7 um; 130A)(Waters Co.,Milford, MA, USA)
Retention time: 13.8283
Precursor type: [M+NH4]+
Precursor m/z: 868.7416
Intensity: 3650
m/z	relative intensity
79.053	15
81.067	45
83.082	14
93.068	24
95.085	54
107.085	14
109.101	30
121.105	23
123.114	15
135.116	38
147.116	17
149.131	25
161.131	15
163.149	27
173.134	24
175.149	20
177.162	13
187.152	13
189.163	15
219.215	22
237.218	25
237.229	23
243.209	36
245.228	19
259.207	13
261.224	118
263.233	38
289.249	6
293.254	6
309.253	6
311.242	8
311.262	47
313.272	4
317.241	26
317.258	22
319.257	12
319.282	4
333.238	6
335.257	26
337.266	28
337.283	13
339.291	6
343.268	5
401.355	4
497.434	10
505.435	6
522.461	7
523.461	18
541.456	7
543.436	6
547.478	17
569.446	25
569.472	22
569.68	12
571.476	720
571.69	6
573.489	999
575.485	6
575.504	18
585.487	6
589.487	7
595.455	11
595.475	56
595.624	7
597.49	845
599.504	149
601.517	24
613.483	6
615.488	8
767.666	4
769.65	3
771.632	13
771.675	10
833.673	6
833.703	22
833.726	14
851.7	85
851.73	122
851.762	20
851.792	3
868.722	142
868.755	122
868.776	28
868.825	6
