Mass spectrum: TG 48:3; LC-ESI-QTOF; MS2
Name: TG 48:3
Class:  TAG
Formula: C51H92O6
Exact mass: 801.2909999999999
SMILES: CCCCCCCCCCCC(=O)OCC(COC(=O)CCCCCCCC\C=C/C=C\CCCCC)OC(=O)CCCCCCCCC\C=C/CCCCCC
InChI: InChI=1S/C51H92O6/c1-4-7-10-13-16-19-21-23-25-27-29-32-35-38-41-44-50(53)56-47-48(46-55-49(52)43-40-37-34-31-18-15-12-9-6-3)57-51(54)45-42-39-36-33-30-28-26-24-22-20-17-14-11-8-5-2/h16,19-23,48H,4-15,17-18,24-47H2,1-3H3/b19-16-,22-20-,23-21-
Instrument: AB Sciex TripleTOF 5600+ system (Q-TOF) equipped with a DuoSpray ion source
Instrument type: LC-ESI-QTOF
Ms type: MS2
Ion mode: POSITIVE
Collision energy: 45V
Column name: Acquity UPLC Peptide BEH C18 column (50*2.1 mm; 1.7 um; 130A)(Waters Co.,Milford, MA, USA)
Retention time: 13.92144
Precursor type: [M+NH4]+
Precursor m/z: 818.7215
Intensity: 26646
m/z	relative intensity
79.053	3
81.068	17
83.084	9
83.092	3
85.099	2
93.068	5
95.085	18
97.1	8
107.083	2
109.099	9
111.116	3
121.101	11
123.117	8
135.117	11
137.131	5
149.133	5
163.149	5
175.152	2
177.162	3
209.188	5
211.207	6
219.207	11
219.22	5
237.221	42
245.227	4
263.232	11
265.251	5
275.226	1
283.23	2
285.245	3
293.246	3
311.26	18
313.274	0
319.26	2
319.275	1
337.274	2
339.289	2
473.439	1
491.409	2
497.444	1
519.387	1
519.442	104
519.82	1
521.455	211
523.464	1
545.447	8
545.468	7
545.756	2
547.472	999
547.605	0
548.475	1
549.472	1
549.503	1
549.628	0
571.691	1
573.488	177
575.502	88
577.497	1
601.489	5
601.515	33
601.536	17
603.529	2
783.691	4
801.656	1
801.693	9
801.721	5
818.598	0
818.703	13
818.726	26
818.79	1
