Mass spectrum: TG 55:3; LC-ESI-QTOF; MS2
Name: TG 55:3
Class:  TAG
Formula: C58H106O6
Exact mass: 899.4799999999999
SMILES: CCCCCCCCC\C=C/CCCCCCCC(=O)OCC(COC(=O)CCCCCCCCC\C=C/CCCCCC)OC(=O)CCCCCCCCC\C=C/CCCCCC
InChI: InChI=1S/C58H106O6/c1-4-7-10-13-16-19-22-25-28-31-33-36-39-42-45-48-51-57(60)63-54-55(64-58(61)52-49-46-43-40-37-34-30-27-24-21-18-15-12-9-6-3)53-62-56(59)50-47-44-41-38-35-32-29-26-23-20-17-14-11-8-5-2/h20-21,23-24,28,31,55H,4-19,22,25-27,29-30,32-54H2,1-3H3/b23-20-,24-21-,31-28-
Instrument: AB Sciex TripleTOF 5600+ system (Q-TOF) equipped with a DuoSpray ion source
Instrument type: LC-ESI-QTOF
Ms type: MS2
Ion mode: POSITIVE
Collision energy: 45V
Column name: Acquity UPLC Peptide BEH C18 column (50*2.1 mm; 1.7 um; 130A)(Waters Co.,Milford, MA, USA)
Retention time: 15.03854
Precursor type: [M+NH4]+
Precursor m/z: 916.8304
Intensity: 32720
m/z	relative intensity
71.086	3
77.038	0
79.053	3
81.07	18
83.085	13
85.063	0
85.1	4
91.052	1
93.07	5
95.086	23
97.065	1
97.101	10
99.078	1
105.069	1
107.086	5
109.101	17
111.116	5
113.098	0
119.083	2
121.101	10
123.117	9
125.132	2
133.103	1
135.117	11
137.132	5
139.112	1
141.129	1
147.116	1
149.131	6
151.149	4
153.128	2
155.141	1
161.131	3
163.148	4
165.163	3
167.14	1
175.145	3
175.154	1
177.16	2
179.181	1
181.16	0
189.165	1
191.177	2
193.199	1
195.175	0
203.182	0
205.191	1
233.225	1
239.235	1
245.226	15
247.242	11
251.24	2
253.253	1
261.247	1
261.26	2
263.236	32
265.252	40
267.265	1
273.255	0
275.273	0
277.249	0
279.268	12
281.276	3
281.293	3
284.291	0
289.3	0
291.267	0
293.279	2
293.293	0
298.306	0
301.252	0
307.293	1
307.317	0
313.278	1
319.261	5
319.274	3
321.267	0
321.281	1
323.301	0
325.274	0
327.292	2
335.25	0
335.29	0
335.32	0
337.272	5
337.287	1
339.29	20
341.3	1
341.314	1
347.291	0
349.312	0
351.282	0
353.291	1
353.306	5
355.321	12
367.315	2
367.343	0
381.341	0
509.476	0
527.476	0
543.512	0
543.526	1
545.475	1
545.51	0
547.472	1
561.466	1
561.491	6
561.523	0
573.473	2
573.494	3
575.503	49
577.5	0
577.528	1
587.479	1
587.509	4
587.531	0
588.551	1
589.517	126
590.52	1
590.563	1
591.531	14
593.553	1
599.645	1
601.518	485
601.632	0
602.504	1
602.522	3
603.533	434
604.526	1
604.551	1
605.521	1
605.551	8
605.572	1
615.532	89
615.624	0
616.553	1
617.426	0
617.548	999
618.545	5
618.566	5
619.564	581
620.557	3
620.581	4
629.548	81
631.563	37
633.584	1
643.562	55
645.568	5
645.589	4
657.581	4
657.603	1
671.59	1
675.561	0
699.601	0
715.663	0
717.605	0
759.646	0
787.687	0
801.729	0
815.737	0
857.744	0
858.744	0
858.806	0
881.766	2
881.792	3
881.814	3
887.77	1
887.805	0
899.543	0
899.804	46
900.791	0
913.956	0
916.532	0
916.6	0
916.732	1
916.831	182
917.804	0
917.83	2
917.863	1
