Mass spectrum: AC 20:3; LC-ESI-QTOF; MS2
Name: AC 20:3
Class:  AcylCarnitine
Formula: C27H48NO4
Exact mass: 450.68399999999997
SMILES: CCCCCCCC\C=C/C\C=C/C\C=C/CCCC(=O)OC(CC(O)=O)C[N+](C)(C)C
InChI: InChI=1S/C27H47NO4/c1-5-6-7-8-9-10-11-12-13-14-15-16-17-18-19-20-21-22-27(31)32-25(23-26(29)30)24-28(2,3)4/h12-13,15-16,18-19,25H,5-11,14,17,20-24H2,1-4H3/p+1/b13-12-,16-15-,19-18-
Instrument: AB Sciex TripleTOF 5600+ system (Q-TOF) equipped with a DuoSpray ion source
Instrument type: LC-ESI-QTOF
Ms type: MS2
Ion mode: POSITIVE
Collision energy: 45V
Column name: Acquity UPLC Peptide BEH C18 column (50*2.1 mm; 1.7 um; 130A)(Waters Co.,Milford, MA, USA)
Retention time: 6.018353
Precursor type: [M+H]+
Precursor m/z: 450.3555
Intensity: 589
m/z	relative intensity
81.068	454
85.024	909
85.028	454
85.03	454
85.036	454
121.099	181
128.951	363
401.348	272
450.285	727
450.315	272
450.339	272
450.345	272
450.354	454
450.363	999
450.372	363
