Mass spectrum: TG 52:3; LC-ESI-QTOF; MS2
Name: TG 52:3
Class:  TAG
Formula: C55H100O6
Exact mass: 857.3989999999999
SMILES: CCCCCCCCCCCCCCCC(=O)OCC(COC(=O)CCCCCCCC\C=C/C=C\CCCCC)OC(=O)CCCCCCCCC\C=C/CCCCCC
InChI: InChI=1S/C55H100O6/c1-4-7-10-13-16-19-22-25-27-30-33-36-39-42-45-48-54(57)60-51-52(50-59-53(56)47-44-41-38-35-32-29-24-21-18-15-12-9-6-3)61-55(58)49-46-43-40-37-34-31-28-26-23-20-17-14-11-8-5-2/h16,19-20,22-23,25,52H,4-15,17-18,21,24,26-51H2,1-3H3/b19-16-,23-20-,25-22-
Instrument: AB Sciex TripleTOF 5600+ system (Q-TOF) equipped with a DuoSpray ion source
Instrument type: LC-ESI-QTOF
Ms type: MS2
Ion mode: POSITIVE
Collision energy: 45V
Column name: Acquity UPLC Peptide BEH C18 column (50*2.1 mm; 1.7 um; 130A)(Waters Co.,Milford, MA, USA)
Retention time: 14.51683
Precursor type: [M+NH4]+
Precursor m/z: 874.7849
Intensity: 1176048
m/z	relative intensity
71.051	1
71.085	22
77.039	4
79.054	18
80.823	0
81.07	76
83.048	1
83.085	45
85.065	2
85.101	22
91.054	9
93.069	25
95.085	89
97.064	3
97.101	34
99.08	5
99.116	4
101.097	0
105.07	6
107.085	19
109.101	64
111.083	1
111.116	17
113.095	4
113.132	1
119.085	7
121.1	38
123.116	46
125.095	3
125.131	6
127.111	3
127.148	1
131.082	0
133.101	12
135.117	39
137.097	0
137.132	26
139.11	2
139.147	1
141.126	3
145.104	0
147.117	9
149.132	26
151.115	0
151.147	16
153.128	7
155.143	2
155.18	0
159.117	1
161.132	16
163.112	0
163.148	25
165.13	1
165.163	16
167.141	4
169.158	1
171.117	0
173.132	2
175.148	20
177.127	0
177.163	11
179.141	1
179.179	5
181.158	2
183.173	0
187.149	1
189.163	9
191.18	4
193.157	3
195.174	1
199.147	0
203.179	4
205.196	3
207.175	2
209.153	0
209.188	0
217.186	0
217.196	1
219.211	3
221.157	0
221.19	1
221.225	7
223.168	0
235.169	1
237.183	0
237.222	4
239.237	100
243.217	0
245.226	58
247.241	39
249.185	1
256.262	4
257.243	1
261.213	1
261.228	0
263.237	200
265.253	143
267.273	0
271.236	0
273.258	0
275.281	0
277.219	0
277.251	0
277.283	0
279.234	0
280.266	0
282.266	0
282.281	0
282.296	0
283.24	0
283.259	0
285.251	0
289.215	0
289.257	0
291.264	0
293.247	0
295.262	0
297.276	0
297.294	0
301.253	1
303.254	0
305.245	0
305.29	0
307.27	0
311.257	2
312.304	0
313.274	84
315.265	0
317.245	0
319.262	30
321.278	6
323.287	0
323.302	0
325.273	0
327.27	0
331.28	0
333.339	0
335.258	2
335.278	0
337.275	32
338.224	0
339.29	61
341.297	1
341.314	0
345.329	0
349.239	0
351.265	0
353.299	0
361.311	0
361.351	0
363.245	0
363.319	0
365.26	0
367.291	0
371.363	0
377.262	0
377.289	0
379.27	0
383.331	0
385.38	0
387.342	0
389.384	0
391.278	0
391.385	0
393.297	0
393.332	0
397.385	0
401.335	0
401.366	0
403.367	0
403.395	0
405.29	0
405.385	0
407.31	0
411.366	0
415.393	0
417.395	0
419.309	0
419.378	0
429.364	0
429.411	0
431.396	0
433.35	0
433.404	0
435.347	0
437.357	0
439.393	0
443.386	0
445.405	0
447.342	0
447.383	0
451.377	0
453.391	0
459.418	0
461.356	0
463.392	0
465.39	0
465.407	0
501.464	2
503.483	1
509.454	0
509.472	1
527.447	0
527.483	10
545.428	0
545.485	6
545.521	1
547.472	3
549.484	2
551.505	1
561.479	1
561.5	0
563.499	4
563.531	0
573.486	55
573.685	1
573.704	5
573.727	2
573.75	0
575.388	1
575.5	999
576.228	0
576.507	19
577.073	0
577.479	0
577.516	950
578.528	15
578.897	0
579.459	0
579.525	1
579.547	0
581.439	0
583.5	0
589.509	2
589.536	1
591.534	3
599.596	1
599.615	3
599.642	8
599.672	1
600.487	0
601.398	1
601.517	946
601.739	0
602.528	41
602.547	11
603.53	169
605.536	0
605.542	0
605.56	1
617.552	0
619.552	1
625.466	0
629.546	2
673.599	0
675.567	0
675.633	0
679.568	0
687.605	0
689.549	0
689.575	0
701.643	0
703.589	0
717.59	0
717.659	0
729.663	0
731.589	0
731.636	0
731.676	0
741.665	0
745.646	0
745.714	0
749.705	0
759.658	0
759.679	0
759.705	0
765.699	0
773.637	0
773.702	0
777.67	0
787.671	0
793.694	0
821.741	0
839.752	20
855.072	0
857.679	0
857.757	98
858.769	0
862.782	0
872.006	0
872.037	0
872.069	0
872.12	0
873.6	0
873.702	0
873.851	0
874.573	0
874.635	0
874.783	105
875.75	0
875.779	0
875.802	0
878.668	0
