Mass spectrum: TG 42:1; LC-ESI-QTOF; MS2
Name: TG 42:1
Class:  TAG
Formula: C45H84O6
Exact mass: 721.1610000000001
SMILES: CCCCCCCCCCCCCC(=O)OC(COC(=O)CCCCCCCCCCC)COC(=O)CCCCC\C=C/CCCCCCCC
InChI: InChI=1S/C45H84O6/c1-4-7-10-13-16-19-21-22-24-26-29-32-35-38-44(47)50-41-42(40-49-43(46)37-34-31-28-25-18-15-12-9-6-3)51-45(48)39-36-33-30-27-23-20-17-14-11-8-5-2/h22,24,42H,4-21,23,25-41H2,1-3H3/b24-22-
Instrument: AB Sciex TripleTOF 5600+ system (Q-TOF) equipped with a DuoSpray ion source
Instrument type: LC-ESI-QTOF
Ms type: MS2
Ion mode: POSITIVE
Collision energy: 45V
Column name: Acquity UPLC Peptide BEH C18 column (50*2.1 mm; 1.7 um; 130A)(Waters Co.,Milford, MA, USA)
Retention time: 13.60112
Precursor type: [M+NH4]+
Precursor m/z: 738.6605
Intensity: 820
m/z	relative intensity
81.07	31
95.084	62
97.099	31
109.101	43
121.101	31
135.116	43
186.995	43
211.206	31
226.985	37
237.223	24
247.002	31
247.24	26
265.25	55
268.996	44
292.965	18
311.251	24
313.277	18
329.004	56
344.986	18
410.989	18
437.361	101
439.375	373
439.402	70
465.392	999
467.399	309
467.42	221
493.002	31
493.405	63
493.428	228
495.428	68
495.469	18
521.425	24
521.45	164
521.466	88
523.475	39
549.46	82
549.485	340
549.508	101
549.535	24
577.504	159
577.522	309
577.55	101
605.539	68
605.574	62
717.567	43
717.598	68
717.627	81
738.534	24
738.643	68
