Mass spectrum: TG 60:11; LC-ESI-QTOF; MS2
Name: TG 60:11
Class:  TAG
Formula: C63H100O6
Exact mass: 953.487
SMILES: CCCCCC\C=C/CCCCCCCCCC(=O)OCC(COC(=O)CCCCC\C=C/C\C=C/C\C=C/C\C=C/C\C=C/CC)OC(=O)CCC\C=C/C\C=C/C\C=C/C\C=C/C\C=C/CC
InChI: InChI=1S/C63H100O6/c1-4-7-10-13-16-19-22-25-28-30-31-33-35-38-41-44-47-50-53-56-62(65)68-59-60(58-67-61(64)55-52-49-46-43-40-37-34-27-24-21-18-15-12-9-6-3)69-63(66)57-54-51-48-45-42-39-36-32-29-26-23-20-17-14-11-8-5-2/h7-8,10-11,16-17,19-21,24-26,28-29,31,33,36,38-39,41,45,48,60H,4-6,9,12-15,18,22-23,27,30,32,34-35,37,40,42-44,46-47,49-59H2,1-3H3/b10-7-,11-8-,19-16-,20-17-,24-21-,28-25-,29-26-,33-31-,39-36-,41-38-,48-45-
Instrument: AB Sciex TripleTOF 5600+ system (Q-TOF) equipped with a DuoSpray ion source
Instrument type: LC-ESI-QTOF
Ms type: MS2
Ion mode: POSITIVE
Collision energy: 45V
Column name: Acquity UPLC Peptide BEH C18 column (50*2.1 mm; 1.7 um; 130A)(Waters Co.,Milford, MA, USA)
Retention time: 14.09562
Precursor type: [M+NH4]+
Precursor m/z: 970.7866
Intensity: 2750
m/z	relative intensity
79.053	33
81.071	34
91.054	40
95.083	36
105.069	28
107.084	33
121.1	28
131.085	59
135.116	28
145.098	28
157.102	40
159.119	79
169.1	34
171.119	40
173.135	45
175.147	31
185.131	36
187.147	49
189.162	26
197.128	25
199.146	49
201.164	95
203.179	25
211.147	47
213.164	66
215.178	66
223.149	45
225.163	28
227.179	25
239.239	49
267.209	25
283.242	16
291.205	20
293.227	95
295.244	32
311.231	97
311.247	66
313.25	74
313.276	176
339.287	49
367.276	21
369.291	32
385.265	28
385.286	20
387.287	26
575.516	16
597.471	25
623.474	83
623.497	275
623.514	325
624.495	29
625.469	38
625.499	538
625.521	999
625.541	317
626.516	66
627.541	24
645.457	22
647.516	20
649.506	41
649.529	45
649.556	36
651.533	26
669.485	20
671.497	25
697.493	70
697.516	313
697.544	111
788.833	8
826.708	8
829.597	8
843.647	13
879.741	45
888.712	20
925.715	288
925.76	100
925.791	20
926.741	44
953.708	33
953.748	79
953.77	66
961.813	34
970.688	24
970.754	315
970.794	364
970.818	154
