Mass spectrum: TG 50:6; LC-ESI-QTOF; MS2
Name: TG 50:6
Class:  TAG
Formula: C53H90O6
Exact mass: 823.297
SMILES: CCCCCCCCCCCCCCCC(=O)OCC(COC(=O)CCCCCCCC\C=C/C=C\CCCCC)OC(=O)CCCCC\C=C/C=C\C=C/C=C\CC
InChI: InChI=1S/C53H90O6/c1-4-7-10-13-16-19-22-25-26-29-31-34-37-40-43-46-52(55)58-49-50(59-53(56)47-44-41-38-35-32-28-24-21-18-15-12-9-6-3)48-57-51(54)45-42-39-36-33-30-27-23-20-17-14-11-8-5-2/h9,12,15-16,18-19,21-22,24-25,28,32,50H,4-8,10-11,13-14,17,20,23,26-27,29-31,33-49H2,1-3H3/b12-9-,18-15-,19-16-,24-21-,25-22-,32-28-
Instrument: AB Sciex TripleTOF 5600+ system (Q-TOF) equipped with a DuoSpray ion source
Instrument type: LC-ESI-QTOF
Ms type: MS2
Ion mode: POSITIVE
Collision energy: 45V
Column name: Acquity UPLC Peptide BEH C18 column (50*2.1 mm; 1.7 um; 130A)(Waters Co.,Milford, MA, USA)
Retention time: 13.69434
Precursor type: [M+NH4]+
Precursor m/z: 840.7041
Intensity: 2153
m/z	relative intensity
81.069	21
83.087	16
91.054	21
95.085	35
109.099	19
117.069	18
121.1	26
123.12	13
133.1	15
135.112	18
159.118	21
173.129	19
183.116	15
185.133	27
201.165	55
211.209	13
231.173	18
237.224	26
267.209	59
283.22	15
283.236	18
285.217	62
285.236	66
285.252	21
295.253	3
311.259	69
313.257	9
313.274	35
337.274	7
339.283	15
341.239	9
365.277	4
430.865	3
465.421	3
519.446	39
521.456	789
541.427	66
543.441	37
545.459	18
551.483	10
551.512	19
565.432	11
567.428	62
567.446	51
569.439	31
569.46	55
569.477	22
573.485	15
575.49	104
575.507	104
575.537	10
593.445	9
595.465	97
595.483	23
595.494	34
597.475	21
597.502	24
599.486	19
599.514	9
621.495	18
623.476	13
623.509	18
739.64	3
757.622	3
758.65	7
805.668	9
810.562	3
819.084	3
821.66	999
822.687	3
823.637	4
823.656	13
823.691	55
840.663	23
840.686	35
840.71	86
840.769	6
