Mass spectrum: TG 52:6; LC-ESI-QTOF; MS2
Name: TG 52:6
Class:  TAG
Formula: C55H94O6
Exact mass: 851.3509999999999
SMILES: CCCCCCCC\C=C/CCCCCC(=O)OCC(COC(=O)CCC\C=C/C\C=C/C\C=C/C\C=C/CCCCC)OC(=O)CCCCC\C=C/CCCCCCCC
InChI: InChI=1S/C55H94O6/c1-4-7-10-13-16-19-22-25-26-27-28-31-33-36-39-42-45-48-54(57)60-51-52(61-55(58)49-46-43-40-37-34-30-24-21-18-15-12-9-6-3)50-59-53(56)47-44-41-38-35-32-29-23-20-17-14-11-8-5-2/h16,19,25-26,28-32,34,36,39,52H,4-15,17-18,20-24,27,33,35,37-38,40-51H2,1-3H3/b19-16-,26-25-,31-28-,32-29-,34-30-,39-36-
Instrument: AB Sciex TripleTOF 5600+ system (Q-TOF) equipped with a DuoSpray ion source
Instrument type: LC-ESI-QTOF
Ms type: MS2
Ion mode: POSITIVE
Collision energy: 45V
Column name: Acquity UPLC Peptide BEH C18 column (50*2.1 mm; 1.7 um; 130A)(Waters Co.,Milford, MA, USA)
Retention time: 13.83796
Precursor type: [M+NH4]+
Precursor m/z: 868.7369
Intensity: 1553
m/z	relative intensity
79.052	21
81.069	74
93.069	43
95.087	47
109.1	34
121.102	25
123.115	52
135.117	60
137.129	23
149.133	44
161.13	36
177.158	30
187.147	24
189.169	21
235.199	22
237.225	34
243.213	52
245.229	30
259.208	34
261.211	44
261.224	53
263.237	105
287.228	12
309.249	21
311.26	21
315.25	22
317.245	43
319.264	17
335.249	17
337.278	69
339.29	17
345.288	12
371.333	21
411.347	14
519.437	23
547.469	108
569.436	30
569.46	66
569.484	22
571.473	999
571.506	119
573.469	245
573.49	478
573.51	169
575.514	43
595.455	44
595.486	61
597.482	343
597.502	173
597.519	66
599.501	207
599.523	162
599.545	30
601.52	61
623.509	31
683.497	8
704.985	8
725.598	9
767.608	8
833.695	47
848.789	8
851.695	140
851.725	101
851.751	47
852.733	10
868.695	34
868.716	70
868.737	123
868.768	106
869.762	12
