Mass spectrum: AC 16:1; LC-ESI-QTOF; MS2
Name: AC 16:1
Class:  AcylCarnitine
Formula: C23H44NO4
Exact mass: 398.608
SMILES: CCCCCCCC\C=C/CCCCCC(=O)OC(CC(O)=O)C[N+](C)(C)C
InChI: InChI=1S/C23H43NO4/c1-5-6-7-8-9-10-11-12-13-14-15-16-17-18-23(27)28-21(19-22(25)26)20-24(2,3)4/h12-13,21H,5-11,14-20H2,1-4H3/p+1/b13-12-
Instrument: AB Sciex TripleTOF 5600+ system (Q-TOF) equipped with a DuoSpray ion source
Instrument type: LC-ESI-QTOF
Ms type: MS2
Ion mode: POSITIVE
Collision energy: 45V
Column name: Acquity UPLC Peptide BEH C18 column (50*2.1 mm; 1.7 um; 130A)(Waters Co.,Milford, MA, USA)
Retention time: 5.539613
Precursor type: [M+H]+
Precursor m/z: 398.3257
Intensity: 1830
m/z	relative intensity
79.054	10
81.07	13
83.088	11
84.082	10
85.027	999
93.071	17
95.086	12
97.099	11
121.101	19
135.12	10
144.1	32
157.047	10
219.208	25
237.217	8
255.157	10
269.181	10
283.19	11
293.002	6
297.215	4
326.284	3
339.258	19
398.325	237
398.349	26
398.369	6
