Mass spectrum: TG 60:11; LC-ESI-QTOF; MS2
Name: TG 60:11
Class:  TAG
Formula: C63H100O6
Exact mass: 953.487
SMILES: CCCCCC\C=C/CCCCCCCCCC(=O)OCC(COC(=O)CC\C=C/C\C=C/C\C=C/C\C=C/C\C=C/C\C=C/CC)OC(=O)CCC\C=C/C\C=C/C\C=C/C\C=C/CCCCC
InChI: InChI=1S/C63H100O6/c1-4-7-10-13-16-19-22-25-28-30-31-33-35-38-41-44-47-50-53-56-62(65)68-59-60(58-67-61(64)55-52-49-46-43-40-37-34-27-24-21-18-15-12-9-6-3)69-63(66)57-54-51-48-45-42-39-36-32-29-26-23-20-17-14-11-8-5-2/h7,10,16-17,19-21,24-26,28-29,31,33,36,38-39,41,45,47-48,50,60H,4-6,8-9,11-15,18,22-23,27,30,32,34-35,37,40,42-44,46,49,51-59H2,1-3H3/b10-7-,19-16-,20-17-,24-21-,28-25-,29-26-,33-31-,39-36-,41-38-,48-45-,50-47-
Instrument: AB Sciex TripleTOF 5600+ system (Q-TOF) equipped with a DuoSpray ion source
Instrument type: LC-ESI-QTOF
Ms type: MS2
Ion mode: POSITIVE
Collision energy: 45V
Column name: Acquity UPLC Peptide BEH C18 column (50*2.1 mm; 1.7 um; 130A)(Waters Co.,Milford, MA, USA)
Retention time: 14.11822
Precursor type: [M+NH4]+
Precursor m/z: 970.7832
Intensity: 506
m/z	relative intensity
119.082	187
131.086	150
135.112	124
185.136	150
201.163	417
265.252	199
285.221	263
287.237	75
289.254	86
293.233	112
295.241	75
299.203	93
313.256	462
314.267	109
337.273	304
339.287	454
345.276	112
374.325	86
387.287	150
597.467	240
599.482	379
599.507	274
600.469	187
600.504	533
600.53	417
621.488	150
623.494	375
623.524	338
625.518	571
648.513	187
649.511	687
649.544	225
650.495	612
650.519	999
650.547	533
651.526	954
651.549	733
671.503	620
696.557	86
697.505	86
825.69	75
864.681	75
865.699	161
877.694	75
888.703	387
902.688	248
902.728	300
902.754	263
930.758	530
930.812	150
947.72	187
947.766	417
947.783	229
947.801	266
953.747	263
970.741	458
970.791	654
970.841	150
