Mass spectrum: TG 51:4; LC-ESI-QTOF; MS2
Name: TG 51:4
Class:  TAG
Formula: C54H96O6
Exact mass: 841.356
SMILES: CCCCCCCCCCCCCCC(=O)OCC(COC(=O)CCCCCCCCC\C=C/C=C\C=C/CC)OC(=O)CCCCCCCCC\C=C/CCCCCC
InChI: InChI=1S/C54H96O6/c1-4-7-10-13-16-19-22-25-27-29-32-35-38-41-44-47-53(56)59-50-51(49-58-52(55)46-43-40-37-34-31-24-21-18-15-12-9-6-3)60-54(57)48-45-42-39-36-33-30-28-26-23-20-17-14-11-8-5-2/h7,10,13,16,19-20,22-23,51H,4-6,8-9,11-12,14-15,17-18,21,24-50H2,1-3H3/b10-7-,16-13-,22-19-,23-20-
Instrument: AB Sciex TripleTOF 5600+ system (Q-TOF) equipped with a DuoSpray ion source
Instrument type: LC-ESI-QTOF
Ms type: MS2
Ion mode: POSITIVE
Collision energy: 45V
Column name: Acquity UPLC Peptide BEH C18 column (50*2.1 mm; 1.7 um; 130A)(Waters Co.,Milford, MA, USA)
Retention time: 14.12055
Precursor type: [M+NH4]+
Precursor m/z: 858.7509
Intensity: 48584
m/z	relative intensity
71.084	5
77.037	1
79.053	8
81.069	32
83.085	10
85.062	1
85.1	6
91.053	6
93.07	10
95.085	33
97.061	1
97.101	10
99.08	1
105.068	2
107.085	8
109.1	24
111.079	2
111.117	3
113.094	1
119.085	5
121.1	15
123.116	16
125.096	2
125.132	1
127.11	1
131.085	1
133.1	6
135.116	11
137.132	13
141.129	1
147.116	4
149.133	9
151.147	6
153.126	2
159.114	2
161.131	10
163.149	9
165.165	3
167.142	1
173.134	2
175.147	12
177.164	4
179.144	1
179.18	1
181.159	1
187.147	2
189.164	4
193.157	1
201.158	1
203.174	2
205.191	2
205.201	3
207.172	1
207.21	2
217.194	1
219.206	2
223.203	3
225.222	21
231.212	2
233.223	2
233.236	1
237.22	3
239.239	5
243.209	9
245.224	19
247.203	1
247.243	2
249.219	3
251.235	5
251.246	1
261.22	30
263.199	1
263.236	60
265.25	7
275.227	1
277.214	1
279.232	0
289.252	1
291.247	1
297.247	0
299.256	21
301.255	1
305.246	1
311.253	3
311.271	1
313.262	2
313.274	5
317.245	8
317.257	1
319.262	13
323.258	1
325.267	4
325.283	1
327.291	1
333.24	1
335.252	2
335.272	1
337.272	30
339.29	18
387.356	1
391.291	1
417.37	0
437.359	1
461.359	0
487.458	1
511.451	1
525.45	2
525.472	3
529.463	1
535.46	1
543.455	1
543.471	1
545.452	1
547.472	7
549.499	1
550.48	1
559.469	124
559.736	1
561.484	999
562.487	4
562.505	2
563.499	137
564.5	1
569.451	1
570.449	1
570.469	1
571.454	10
571.479	9
573.489	132
574.471	1
574.5	2
575.502	79
576.502	7
576.531	1
577.542	1
585.486	132
587.499	96
589.502	4
589.527	5
596.475	1
597.477	1
597.505	1
597.647	1
598.473	3
598.492	2
598.509	1
599.501	507
600.482	1
600.51	5
601.516	127
603.503	1
603.537	3
613.508	3
624.492	1
715.579	0
729.577	0
729.612	1
729.655	0
743.602	0
743.637	0
757.628	1
757.668	0
771.625	0
823.698	12
823.73	5
823.746	3
824.713	0
839.083	0
841.722	104
841.922	0
842.715	1
850.037	0
852.71	119
852.766	4
853.709	0
856.052	0
858.685	1
858.748	122
859.736	0
859.762	0
