Mass spectrum: TG 56:2; LC-ESI-QTOF; MS2
Name: TG 56:2
Class:  TAG
Formula: C59H110O6
Exact mass: 915.523
SMILES: CCCCCCCCCCCCCCCC(=O)OCC(COC(=O)CCCCCCCCC\C=C/CCCCCCCC)OC(=O)CCCCCCCCC\C=C/CCCCCCCC
InChI: InChI=1S/C59H110O6/c1-4-7-10-13-16-19-22-25-27-29-31-34-37-40-43-46-49-52-58(61)64-55-56(54-63-57(60)51-48-45-42-39-36-33-24-21-18-15-12-9-6-3)65-59(62)53-50-47-44-41-38-35-32-30-28-26-23-20-17-14-11-8-5-2/h25-28,56H,4-24,29-55H2,1-3H3/b27-25-,28-26-
Instrument: AB Sciex TripleTOF 5600+ system (Q-TOF) equipped with a DuoSpray ion source
Instrument type: LC-ESI-QTOF
Ms type: MS2
Ion mode: POSITIVE
Collision energy: 45V
Column name: Acquity UPLC Peptide BEH C18 column (50*2.1 mm; 1.7 um; 130A)(Waters Co.,Milford, MA, USA)
Retention time: 15.60049
Precursor type: [M+NH4]+
Precursor m/z: 932.8651
Intensity: 1888
m/z	relative intensity
81.07	15
83.085	10
95.082	14
95.091	7
97.1	17
109.101	12
121.1	10
123.118	14
239.24	7
247.247	10
265.253	61
267.266	17
275.273	6
293.278	14
293.294	9
295.299	4
313.279	4
321.329	6
323.291	3
339.289	23
341.295	6
367.327	4
369.336	4
395.346	5
549.487	22
575.511	25
577.518	157
579.529	12
603.518	67
603.535	157
603.556	49
605.506	16
605.551	746
605.581	74
607.543	14
607.572	85
631.567	639
631.637	9
633.581	999
635.595	25
659.584	100
659.604	88
659.625	65
661.611	17
661.632	12
687.637	8
897.815	4
906.843	12
915.826	18
915.865	3
932.814	32
932.849	78
932.871	128
932.902	38
932.931	9
