Mass spectrum: TG 56:6; LC-ESI-QTOF; MS2
Name: TG 56:6
Class:  TAG
Formula: C59H102O6
Exact mass: 907.4590000000001
SMILES: CCCCCCCCCCCCCCCCCC(=O)OC(COC(=O)CCCCCCCCCCCCCCC)COC(=O)CC\C=C/C\C=C/C\C=C/C\C=C/C\C=C/C\C=C/CC
InChI: InChI=1S/C59H102O6/c1-4-7-10-13-16-19-22-25-27-28-29-30-32-34-37-40-43-46-49-52-58(61)64-55-56(54-63-57(60)51-48-45-42-39-36-33-24-21-18-15-12-9-6-3)65-59(62)53-50-47-44-41-38-35-31-26-23-20-17-14-11-8-5-2/h7,10,16,19,25,27,29-30,34,37,43,46,56H,4-6,8-9,11-15,17-18,20-24,26,28,31-33,35-36,38-42,44-45,47-55H2,1-3H3/b10-7-,19-16-,27-25-,30-29-,37-34-,46-43-
Instrument: AB Sciex TripleTOF 5600+ system (Q-TOF) equipped with a DuoSpray ion source
Instrument type: LC-ESI-QTOF
Ms type: MS2
Ion mode: POSITIVE
Collision energy: 45V
Column name: Acquity UPLC Peptide BEH C18 column (50*2.1 mm; 1.7 um; 130A)(Waters Co.,Milford, MA, USA)
Retention time: 14.69665
Precursor type: [M+NH4]+
Precursor m/z: 924.8007
Intensity: 1806
m/z	relative intensity
71.085	13
81.068	15
83.085	10
95.084	22
97.102	12
109.1	16
131.084	10
137.127	9
171.115	8
173.136	9
175.148	8
181.097	10
183.114	9
186.993	11
187.147	9
199.148	8
201.163	15
209.13	11
211.149	18
213.163	9
215.177	10
223.149	9
225.166	9
227.173	10
227.187	10
239.236	14
267.266	22
268.996	22
269.007	19
269.227	11
283.241	4
293.218	27
293.232	29
311.236	79
313.272	26
313.289	7
341.295	11
341.308	22
341.32	11
350.999	6
367.271	15
383.256	4
385.279	5
395.309	6
424.97	3
432.984	6
433.006	22
433.028	4
514.997	18
515.016	7
515.041	4
549.456	3
577.715	5
578.518	3
579.532	999
580.512	13
580.549	18
595.472	2
597.003	6
605.543	3
623.499	230
624.492	5
651.503	20
651.53	167
679.001	3
742.851	1
742.979	1
761.0	5
829.7	1
830.716	1
842.737	1
854.87	1
855.73	3
856.733	1
889.754	2
907.747	24
907.773	30
907.802	13
924.696	5
924.737	13
924.767	72
924.809	104
924.83	45
924.878	12
925.759	6
925.804	5
