Mass spectrum: TG 46:1; LC-ESI-QTOF; MS2
Name: TG 46:1
Class:  TAG
Formula: C49H92O6
Exact mass: 777.269
SMILES: CCCCCCCCCCCCCC(=O)OCC(COC(=O)CCCCCCCCC\C=C/CCCCCC)OC(=O)CCCCCCCCCCCCC
InChI: InChI=1S/C49H92O6/c1-4-7-10-13-16-19-22-23-24-25-28-30-33-36-39-42-48(51)54-45-46(55-49(52)43-40-37-34-31-27-21-18-15-12-9-6-3)44-53-47(50)41-38-35-32-29-26-20-17-14-11-8-5-2/h19,22,46H,4-18,20-21,23-45H2,1-3H3/b22-19-
Instrument: AB Sciex TripleTOF 5600+ system (Q-TOF) equipped with a DuoSpray ion source
Instrument type: LC-ESI-QTOF
Ms type: MS2
Ion mode: POSITIVE
Collision energy: 45V
Column name: Acquity UPLC Peptide BEH C18 column (50*2.1 mm; 1.7 um; 130A)(Waters Co.,Milford, MA, USA)
Retention time: 14.1093
Precursor type: [M+NH4]+
Precursor m/z: 794.7238
Intensity: 14542
m/z	relative intensity
71.086	13
79.055	2
81.07	16
83.085	14
85.1	14
93.07	4
95.086	39
97.102	17
99.117	2
107.085	4
109.101	21
111.117	10
121.101	12
123.116	13
125.135	2
127.147	1
135.118	12
137.133	8
149.133	4
151.151	4
163.148	3
165.163	2
183.177	6
191.182	2
193.201	3
209.195	2
211.207	45
219.213	9
221.222	2
228.235	2
237.221	29
239.238	37
247.241	4
265.256	8
283.225	1
285.247	8
293.249	0
295.263	0
311.26	5
313.273	9
313.286	4
321.28	0
339.293	1
447.418	0
448.906	0
465.421	0
467.399	1
493.413	3
493.433	3
493.452	2
495.291	1
495.442	176
519.828	2
521.321	1
521.458	999
521.836	3
522.457	3
522.484	1
523.333	1
523.472	603
524.473	1
535.479	1
547.759	1
547.788	1
549.489	726
550.483	1
550.527	1
551.505	70
577.521	97
577.562	4
578.519	1
605.552	3
686.425	0
759.686	1
777.691	3
792.217	0
794.711	31
794.741	35
794.794	1
