Mass spectrum: TG 54:1; LC-ESI-QTOF; MS2
Name: TG 54:1
Class:  TAG
Formula: C57H108O6
Exact mass: 889.485
SMILES: CCCCCCCCCCCCCCCCCC(=O)OC(COC(=O)CCCCCCCCCCCCCCC)COC(=O)CCCCCCCCC\C=C/CCCCCCCC
InChI: InChI=1S/C57H108O6/c1-4-7-10-13-16-19-22-25-27-28-30-32-35-38-41-44-47-50-56(59)62-53-54(52-61-55(58)49-46-43-40-37-34-31-24-21-18-15-12-9-6-3)63-57(60)51-48-45-42-39-36-33-29-26-23-20-17-14-11-8-5-2/h25,27,54H,4-24,26,28-53H2,1-3H3/b27-25-
Instrument: AB Sciex TripleTOF 5600+ system (Q-TOF) equipped with a DuoSpray ion source
Instrument type: LC-ESI-QTOF
Ms type: MS2
Ion mode: POSITIVE
Collision energy: 45V
Column name: Acquity UPLC Peptide BEH C18 column (50*2.1 mm; 1.7 um; 130A)(Waters Co.,Milford, MA, USA)
Retention time: 15.63601
Precursor type: [M+NH4]+
Precursor m/z: 906.8499
Intensity: 594
m/z	relative intensity
81.071	27
85.098	54
95.083	40
97.103	40
109.1	40
121.096	27
186.995	81
226.988	95
247.243	27
254.983	40
265.246	72
268.998	163
285.005	27
292.952	85
324.94	27
341.297	31
369.334	54
374.97	27
390.996	54
429.096	31
433.002	40
438.922	40
577.503	264
577.516	999
577.53	293
579.53	206
605.513	40
605.523	83
605.556	417
607.537	139
607.57	987
607.601	111
633.563	362
633.572	416
633.581	472
633.59	416
633.599	431
633.629	98
635.581	68
906.674	31
906.786	40
906.823	80
906.833	96
906.864	195
