Mass spectrum: TG 60:13; LC-ESI-QTOF; MS2
Name: TG 60:13
Class:  TAG
Formula: C63H96O6
Exact mass: 949.455
SMILES: CCCCC\C=C/C=C\CCCCCCCCC(=O)OCC(COC(=O)CC\C=C/C\C=C/C\C=C/C\C=C/C\C=C/C\C=C/CC)OC(=O)CCC\C=C/C\C=C/C\C=C/C\C=C/C\C=C/CC
InChI: InChI=1S/C63H96O6/c1-4-7-10-13-16-19-22-25-28-30-31-33-35-38-41-44-47-50-53-56-62(65)68-59-60(58-67-61(64)55-52-49-46-43-40-37-34-27-24-21-18-15-12-9-6-3)69-63(66)57-54-51-48-45-42-39-36-32-29-26-23-20-17-14-11-8-5-2/h7-8,10-11,16-21,24-29,31,33,36,38-39,41,45,47-48,50,60H,4-6,9,12-15,22-23,30,32,34-35,37,40,42-44,46,49,51-59H2,1-3H3/b10-7-,11-8-,19-16-,20-17-,21-18-,27-24-,28-25-,29-26-,33-31-,39-36-,41-38-,48-45-,50-47-
Instrument: AB Sciex TripleTOF 5600+ system (Q-TOF) equipped with a DuoSpray ion source
Instrument type: LC-ESI-QTOF
Ms type: MS2
Ion mode: POSITIVE
Collision energy: 45V
Column name: Acquity UPLC Peptide BEH C18 column (50*2.1 mm; 1.7 um; 130A)(Waters Co.,Milford, MA, USA)
Retention time: 13.76639
Precursor type: [M+NH4]+
Precursor m/z: 966.7587
Intensity: 1569
m/z	relative intensity
91.054	35
93.069	42
109.097	39
117.068	42
119.086	42
121.1	35
123.116	24
133.098	35
135.115	31
143.079	28
159.117	57
161.135	26
169.106	42
171.112	38
173.135	39
183.121	39
185.132	49
195.122	28
199.147	39
201.157	28
201.161	25
201.171	57
211.147	60
215.18	40
223.152	25
227.172	26
263.229	24
267.215	42
283.224	17
285.231	36
293.224	46
295.25	15
311.226	10
311.233	43
311.251	49
311.27	60
337.266	35
337.277	128
337.287	42
351.222	17
367.255	24
385.271	46
391.307	14
595.452	32
595.481	42
598.508	29
600.509	52
617.441	21
617.455	53
617.462	43
617.469	50
617.476	25
621.486	999
621.504	236
621.511	210
621.518	158
621.532	92
622.488	24
647.478	50
647.491	223
647.503	147
647.51	162
647.518	166
647.525	90
647.532	57
669.475	31
669.495	49
669.518	86
695.478	14
695.485	28
695.493	21
695.5	28
695.508	24
695.53	10
695.541	8
717.468	17
717.479	10
717.509	63
742.971	7
945.653	67
945.661	67
945.67	122
945.679	205
945.687	250
945.696	288
945.705	265
945.715	354
945.726	208
945.735	180
945.744	172
945.752	138
949.71	46
949.755	75
966.716	65
966.734	195
966.762	431
966.782	115
966.791	86
966.799	75
