Mass spectrum: TG 56:2; LC-ESI-QTOF; MS2
Name: TG 56:2
Class:  TAG
Formula: C59H110O6
Exact mass: 915.523
SMILES: CCCCCCCCCCCCCCCC(=O)OCC(COC(=O)CCCCCCCCC\C=C/CCCCCCCCCC)OC(=O)CCCCCCCCC\C=C/CCCCCC
InChI: InChI=1S/C59H110O6/c1-4-7-10-13-16-19-22-25-27-28-29-30-32-34-37-40-43-46-49-52-58(61)64-55-56(54-63-57(60)51-48-45-42-39-36-33-24-21-18-15-12-9-6-3)65-59(62)53-50-47-44-41-38-35-31-26-23-20-17-14-11-8-5-2/h20,23,28-29,56H,4-19,21-22,24-27,30-55H2,1-3H3/b23-20-,29-28-
Instrument: AB Sciex TripleTOF 5600+ system (Q-TOF) equipped with a DuoSpray ion source
Instrument type: LC-ESI-QTOF
Ms type: MS2
Ion mode: POSITIVE
Collision energy: 45V
Column name: Acquity UPLC Peptide BEH C18 column (50*2.1 mm; 1.7 um; 130A)(Waters Co.,Milford, MA, USA)
Retention time: 15.65368
Precursor type: [M+NH4]+
Precursor m/z: 932.8625
Intensity: 594
m/z	relative intensity
71.087	4
81.07	16
83.086	10
85.101	5
93.068	3
95.085	16
97.101	5
104.995	3
109.102	11
111.116	5
121.101	3
123.118	7
125.132	3
135.114	3
139.11	2
149.133	3
163.149	4
165.166	2
177.166	3
186.996	10
193.2	2
226.987	17
239.237	17
247.24	10
254.982	3
265.252	43
267.269	4
268.991	14
269.006	15
275.268	2
292.96	9
293.287	4
295.303	5
303.297	4
303.315	3
308.993	3
313.273	9
321.312	23
321.331	3
332.952	4
339.28	8
339.301	3
348.975	3
348.999	2
351.0	4
367.319	3
368.958	2
369.336	4
374.955	2
377.331	2
377.353	2
390.991	6
395.333	2
395.36	4
397.368	2
404.973	2
414.951	1
430.993	3
432.985	2
433.016	5
454.943	3
456.966	2
458.983	1
512.993	2
515.004	4
523.268	2
547.476	2
549.466	3
549.487	12
575.497	49
575.525	5
577.519	569
578.517	12
578.531	6
578.539	5
585.55	2
603.531	278
604.522	4
604.553	7
605.548	287
606.548	10
606.574	3
618.973	2
620.969	3
631.562	196
632.56	3
632.581	4
633.554	155
633.582	999
634.599	16
635.567	5
635.596	39
635.639	2
642.94	2
657.518	3
659.595	737
660.575	3
660.603	31
660.622	8
661.584	4
661.609	9
661.627	12
678.93	1
679.009	1
687.623	1
700.914	3
714.915	1
719.008	2
736.927	1
742.966	1
761.003	1
766.925	1
772.875	1
801.027	1
804.943	1
880.944	1
897.816	1
912.774	1
915.804	6
915.839	14
915.873	4
929.945	2
932.553	1
932.619	3
932.74	2
932.814	13
932.866	264
933.836	7
933.88	13
