Mass spectrum: TG 52:4; LC-ESI-QTOF; MS2
Name: TG 52:4
Class:  TAG
Formula: C55H98O6
Exact mass: 855.3829999999999
SMILES: CCCCCCCCCCCCCCCC(=O)OCC(COC(=O)CCCCCCCC\C=C/C=C\CCCCC)OC(=O)CCCCCCCC\C=C/C=C\CCCCC
InChI: InChI=1S/C55H98O6/c1-4-7-10-13-16-19-22-25-27-30-33-36-39-42-45-48-54(57)60-51-52(50-59-53(56)47-44-41-38-35-32-29-24-21-18-15-12-9-6-3)61-55(58)49-46-43-40-37-34-31-28-26-23-20-17-14-11-8-5-2/h16-17,19-20,22-23,25-26,52H,4-15,18,21,24,27-51H2,1-3H3/b19-16-,20-17-,25-22-,26-23-
Instrument: AB Sciex TripleTOF 5600+ system (Q-TOF) equipped with a DuoSpray ion source
Instrument type: LC-ESI-QTOF
Ms type: MS2
Ion mode: POSITIVE
Collision energy: 45V
Column name: Acquity UPLC Peptide BEH C18 column (50*2.1 mm; 1.7 um; 130A)(Waters Co.,Milford, MA, USA)
Retention time: 14.2586
Precursor type: [M+NH4]+
Precursor m/z: 872.7694
Intensity: 192512
m/z	relative intensity
71.049	1
71.085	8
77.037	2
79.053	14
80.825	0
81.07	62
83.045	0
83.085	22
85.064	3
85.1	8
91.052	5
93.069	19
95.052	0
95.085	59
97.065	2
97.101	18
99.08	4
99.116	1
105.069	6
107.085	15
109.101	36
111.081	3
111.116	8
113.096	2
113.132	1
117.07	0
119.085	8
121.101	25
123.078	0
123.116	25
125.096	2
125.131	2
127.111	2
131.088	0
133.101	11
135.117	25
137.097	1
137.133	16
139.113	2
139.148	1
141.129	1
145.096	0
147.119	7
149.133	17
151.112	0
151.147	10
153.126	4
155.143	2
159.119	2
161.132	15
163.148	20
165.128	1
165.166	7
167.143	2
171.115	1
173.134	3
175.112	0
175.148	19
177.164	9
179.143	2
179.178	2
181.158	1
185.131	1
187.147	2
189.154	2
189.165	9
191.143	0
191.179	2
193.16	3
199.139	0
199.15	0
201.161	0
203.18	4
205.194	1
207.173	2
207.183	0
209.155	0
213.162	0
215.179	0
217.198	2
219.21	10
221.152	0
221.191	1
221.219	1
221.231	2
233.229	1
235.17	1
235.206	1
235.246	0
237.221	20
239.237	27
241.194	0
243.212	6
245.19	0
245.227	42
247.243	9
249.186	1
249.224	0
251.201	0
256.259	1
257.242	0
261.223	16
263.238	112
265.254	28
271.242	0
273.221	0
273.254	0
273.271	0
275.196	0
275.24	1
275.277	0
277.205	0
277.22	0
279.231	0
280.269	0
281.217	0
282.28	0
283.242	0
283.254	0
285.249	0
287.226	0
287.274	0
289.256	1
289.294	0
291.235	0
291.275	0
293.247	1
295.273	0
297.221	0
297.291	0
299.244	0
301.251	2
301.294	0
303.248	0
303.271	0
305.244	0
307.262	0
309.242	0
311.26	14
313.275	32
317.251	4
317.286	0
319.265	26
321.276	1
321.295	0
323.3	0
327.268	0
331.26	0
331.3	0
333.245	0
333.297	0
335.257	2
335.275	1
337.276	36
337.332	0
339.291	18
341.278	0
343.273	0
343.33	0
345.286	0
345.322	0
347.299	0
349.238	0
351.261	0
353.301	0
355.297	0
359.284	0
359.336	0
361.358	0
363.26	0
365.27	0
367.283	0
367.315	0
371.295	0
373.313	0
373.34	0
373.359	0
375.3	0
377.27	0
379.279	0
387.317	0
387.334	0
387.367	0
389.289	0
389.356	0
391.282	0
393.304	0
397.339	0
399.323	0
399.367	0
401.342	0
401.382	0
403.361	0
405.297	0
407.317	0
411.369	0
413.342	0
413.377	0
413.39	0
415.361	0
415.395	0
417.375	0
419.311	0
419.378	0
423.349	0
427.365	0
427.403	0
429.372	0
431.343	0
431.366	0
431.393	0
435.358	0
437.366	0
443.389	0
445.378	0
445.412	0
447.356	0
449.357	0
449.377	0
451.381	0
457.407	0
459.386	0
461.349	0
461.392	0
463.37	0
463.387	0
465.392	0
473.404	0
475.382	1
479.418	0
487.38	0
491.396	0
499.455	2
501.391	1
501.469	2
507.454	1
515.403	0
517.463	1
523.452	0
525.468	9
527.483	2
529.43	0
541.397	0
543.46	2
543.476	4
543.492	2
545.432	0
545.471	0
545.498	1
547.471	2
549.494	2
559.466	0
559.486	1
561.481	0
561.5	0
563.496	0
571.692	0
573.489	586
575.349	0
575.404	1
575.504	999
576.51	1
577.521	36
581.493	1
587.512	1
589.508	1
589.53	1
597.494	0
597.603	0
597.633	2
597.657	1
599.379	0
599.505	673
601.521	530
603.533	9
615.493	0
615.51	0
615.528	0
617.492	0
617.516	2
617.533	1
619.491	0
619.531	0
627.535	1
627.557	0
629.548	0
633.512	0
659.536	0
671.444	0
671.601	0
673.543	0
675.563	0
681.571	0
685.632	0
687.556	0
689.564	0
699.618	0
701.565	0
703.611	0
711.63	0
713.611	0
715.593	0
717.607	0
725.606	0
727.655	0
729.606	0
729.641	0
731.624	0
739.655	0
743.615	1
743.654	1
743.692	0
745.649	0
757.609	0
757.647	2
757.701	0
771.632	0
771.664	0
771.701	0
781.696	0
785.67	0
799.715	0
837.677	0
837.739	20
837.8	0
853.071	0
855.749	134
856.145	0
870.024	0
870.059	0
871.848	0
872.52	0
872.569	0
872.775	118
872.933	0
873.102	0
