Mass spectrum: TG 54:2; LC-ESI-QTOF; MS2
Name: TG 54:2
Class:  TAG
Formula: C57H106O6
Exact mass: 887.4689999999999
SMILES: CCCCCCCCCCCCCCCC(=O)OCC(COC(=O)CCCCCCCCC\C=C/CCCCCCCC)OC(=O)CCCCCCCCC\C=C/CCCCCC
InChI: InChI=1S/C57H106O6/c1-4-7-10-13-16-19-22-25-27-28-30-32-35-38-41-44-47-50-56(59)62-53-54(52-61-55(58)49-46-43-40-37-34-31-24-21-18-15-12-9-6-3)63-57(60)51-48-45-42-39-36-33-29-26-23-20-17-14-11-8-5-2/h20,23,25,27,54H,4-19,21-22,24,26,28-53H2,1-3H3/b23-20-,27-25-
Instrument: AB Sciex TripleTOF 5600+ system (Q-TOF) equipped with a DuoSpray ion source
Instrument type: LC-ESI-QTOF
Ms type: MS2
Ion mode: POSITIVE
Collision energy: 45V
Column name: Acquity UPLC Peptide BEH C18 column (50*2.1 mm; 1.7 um; 130A)(Waters Co.,Milford, MA, USA)
Retention time: 15.21044
Precursor type: [M+NH4]+
Precursor m/z: 904.8313
Intensity: 3279
m/z	relative intensity
71.084	10
81.069	16
83.084	12
85.102	6
93.068	5
95.086	27
97.1	9
109.098	8
109.107	3
111.114	5
121.101	10
123.116	8
135.113	8
137.132	4
149.132	4
163.147	4
186.99	3
239.236	22
247.239	12
263.239	6
265.249	43
267.271	7
269.001	3
275.274	6
285.287	1
293.281	27
303.299	1
313.274	8
319.257	1
321.273	3
323.299	1
339.288	14
341.299	5
349.306	4
367.314	6
367.336	2
369.329	1
549.471	10
549.5	17
575.502	62
575.72	5
577.518	752
578.52	59
578.552	12
580.536	14
580.558	9
603.533	353
603.666	5
604.552	7
605.549	999
606.536	27
606.561	65
607.553	21
607.57	18
607.601	5
631.565	698
631.629	4
632.554	8
632.572	13
632.592	10
633.569	19
633.594	17
730.024	1
869.797	5
879.726	3
879.797	3
879.835	3
887.791	8
887.816	10
904.794	46
904.825	120
904.85	60
904.916	5
905.789	4
905.834	8
905.886	3
909.796	2
