Mass spectrum: AC 18:2; LC-ESI-QTOF; MS2
Name: AC 18:2
Class:  AcylCarnitine
Formula: C25H46NO4
Exact mass: 424.64599999999996
SMILES: CCCCC\C=C\C=C\CCCCCCCCC(=O)OC(CC(O)=O)C[N+](C)(C)C
InChI: InChI=1S/C25H45NO4/c1-5-6-7-8-9-10-11-12-13-14-15-16-17-18-19-20-25(29)30-23(21-24(27)28)22-26(2,3)4/h9-12,23H,5-8,13-22H2,1-4H3/p+1/b10-9+,12-11+
Instrument: AB Sciex TripleTOF 5600+ system (Q-TOF) equipped with a DuoSpray ion source
Instrument type: LC-ESI-QTOF
Ms type: MS2
Ion mode: POSITIVE
Collision energy: 45V
Column name: Acquity UPLC Peptide BEH C18 column (50*2.1 mm; 1.7 um; 130A)(Waters Co.,Milford, MA, USA)
Retention time: 5.764474
Precursor type: [M+H]+
Precursor m/z: 424.3424
Intensity: 5633
m/z	relative intensity
79.053	15
81.071	40
83.085	36
84.079	18
84.775	16
85.028	999
91.053	12
93.068	9
95.083	26
95.089	16
97.102	21
103.038	9
105.069	12
109.099	19
111.119	7
119.085	10
121.1	9
123.115	12
133.093	13
144.101	56
147.116	13
149.131	11
161.131	12
175.148	9
245.228	9
263.238	13
281.169	6
283.193	7
295.207	3
309.205	3
424.272	3
424.34	423
424.455	3
