Mass spectrum: TG 58:8; LC-ESI-QTOF; MS2
Name: TG 58:8
Class:  TAG
Formula: C61H102O6
Exact mass: 931.481
SMILES: CCCCCC\C=C/CCCCCCCCCC(=O)OCC(COC(=O)CC\C=C/C\C=C/C\C=C/C\C=C/C\C=C/C\C=C/CC)OC(=O)CCCCCCCCC\C=C/CCCCCC
InChI: InChI=1S/C61H102O6/c1-4-7-10-13-16-19-22-25-28-29-30-31-34-36-39-42-45-48-51-54-60(63)66-57-58(67-61(64)55-52-49-46-43-40-37-33-27-24-21-18-15-12-9-6-3)56-65-59(62)53-50-47-44-41-38-35-32-26-23-20-17-14-11-8-5-2/h7,10,16,19-21,23-25,28,30-31,36,39,45,48,58H,4-6,8-9,11-15,17-18,22,26-27,29,32-35,37-38,40-44,46-47,49-57H2,1-3H3/b10-7-,19-16-,23-20-,24-21-,28-25-,31-30-,39-36-,48-45-
Instrument: AB Sciex TripleTOF 5600+ system (Q-TOF) equipped with a DuoSpray ion source
Instrument type: LC-ESI-QTOF
Ms type: MS2
Ion mode: POSITIVE
Collision energy: 45V
Column name: Acquity UPLC Peptide BEH C18 column (50*2.1 mm; 1.7 um; 130A)(Waters Co.,Milford, MA, USA)
Retention time: 14.42611
Precursor type: [M+NH4]+
Precursor m/z: 948.8031
Intensity: 6983
m/z	relative intensity
79.054	7
81.067	13
83.084	9
91.054	5
93.068	8
95.084	15
97.099	6
105.067	5
107.083	4
109.099	9
119.084	8
121.099	11
123.115	9
133.1	5
135.115	9
145.1	7
147.114	6
149.129	5
157.099	5
159.114	5
161.138	4
163.148	6
169.101	4
171.116	10
173.13	6
175.147	8
183.117	7
185.131	8
187.143	4
195.113	4
197.127	4
199.147	6
201.165	9
209.129	4
211.144	6
213.163	6
215.177	8
223.147	7
225.164	4
227.181	13
237.163	4
241.16	5
247.238	7
251.18	6
263.239	8
265.252	33
267.211	4
267.265	7
269.228	7
277.204	1
281.216	1
283.205	2
283.244	4
284.297	1
285.189	1
291.212	1
292.958	2
293.226	36
293.238	8
301.252	1
309.225	3
311.236	58
311.26	3
312.244	1
313.265	2
319.261	2
319.281	1
321.279	1
323.292	1
337.274	16
338.25	1
339.291	36
341.304	21
347.305	1
365.281	1
367.257	3
367.272	2
385.27	1
393.296	4
395.313	1
435.345	1
449.365	1
456.973	1
529.489	2
538.963	2
549.467	2
549.489	3
551.497	2
551.512	1
557.463	1
571.445	1
571.476	4
573.464	3
573.495	2
575.497	11
575.527	3
577.516	6
597.469	9
597.495	9
599.505	4
601.51	2
601.539	2
601.658	3
603.534	999
604.536	40
605.554	3
620.977	2
623.495	4
623.521	3
625.511	2
629.538	3
629.565	1
647.502	107
647.562	2
648.497	4
649.517	233
650.514	6
651.528	71
651.557	11
652.521	2
665.53	2
667.529	2
675.513	2
675.57	2
695.577	1
702.971	0
853.7	36
853.722	111
853.755	43
853.804	1
853.84	0
854.694	2
854.734	2
854.771	1
861.705	2
866.685	0
866.732	2
913.752	2
913.797	3
931.725	5
931.772	64
931.816	10
932.747	1
945.826	1
948.731	2
948.804	264
948.89	1
949.76	1
949.789	5
949.812	9
949.84	3
949.868	2
