Mass spectrum: TG 60:12; LC-ESI-QTOF; MS2
Name: TG 60:12
Class:  TAG
Formula: C63H98O6
Exact mass: 951.471
SMILES: CCCCCCCCCCCCCCCC(=O)OCC(COC(=O)CC\C=C/C\C=C/C\C=C/C\C=C/C\C=C/C\C=C/CC)OC(=O)CC\C=C/C\C=C/C\C=C/C\C=C/C\C=C/C\C=C/CC
InChI: InChI=1S/C63H98O6/c1-4-7-10-13-16-19-22-25-27-29-31-33-35-38-41-44-47-50-53-56-62(65)68-59-60(58-67-61(64)55-52-49-46-43-40-37-24-21-18-15-12-9-6-3)69-63(66)57-54-51-48-45-42-39-36-34-32-30-28-26-23-20-17-14-11-8-5-2/h7-8,10-11,16-17,19-20,25-28,31-34,38-39,41-42,47-48,50-51,60H,4-6,9,12-15,18,21-24,29-30,35-37,40,43-46,49,52-59H2,1-3H3/b10-7-,11-8-,19-16-,20-17-,27-25-,28-26-,33-31-,34-32-,41-38-,42-39-,50-47-,51-48-
Instrument: AB Sciex TripleTOF 5600+ system (Q-TOF) equipped with a DuoSpray ion source
Instrument type: LC-ESI-QTOF
Ms type: MS2
Ion mode: POSITIVE
Collision energy: 45V
Column name: Acquity UPLC Peptide BEH C18 column (50*2.1 mm; 1.7 um; 130A)(Waters Co.,Milford, MA, USA)
Retention time: 14.0367
Precursor type: [M+NH4]+
Precursor m/z: 968.77
Intensity: 40130
m/z	relative intensity
71.084	4
77.039	2
79.053	10
81.07	14
83.084	4
85.101	5
91.053	19
93.068	13
95.085	17
97.101	2
105.07	9
107.085	9
109.1	12
115.052	1
117.069	10
119.083	12
121.101	9
123.117	4
128.062	1
129.068	7
131.084	16
133.101	12
135.117	5
137.128	1
141.07	4
143.084	7
145.099	13
147.08	2
147.116	8
149.093	2
149.131	3
155.085	5
157.101	11
159.08	1
159.115	15
161.094	2
161.132	13
163.111	1
163.147	3
167.085	6
169.1	11
171.115	16
173.132	17
175.112	3
175.147	9
181.101	8
183.116	10
185.094	1
185.132	16
187.111	3
187.148	9
189.126	5
189.161	3
195.115	7
197.132	10
199.111	3
199.147	12
201.125	5
201.163	23
203.141	1
203.178	3
209.13	11
211.148	13
213.123	1
213.164	12
215.142	2
215.179	8
215.189	2
221.13	2
221.226	2
223.147	12
225.164	8
227.142	4
227.178	18
229.159	5
237.164	6
239.142	1
239.177	5
239.235	13
241.157	5
241.195	2
243.173	2
249.163	1
251.177	8
253.195	3
255.175	2
263.18	1
265.196	5
267.212	6
269.189	2
269.225	11
275.179	1
277.199	0
279.211	0
281.194	0
281.233	0
283.202	1
283.243	4
289.191	0
291.209	4
293.225	48
295.238	2
297.272	0
307.202	1
307.242	0
309.209	1
309.221	4
311.191	0
311.237	57
312.238	0
313.237	0
313.272	73
314.276	1
319.269	0
321.218	0
325.21	0
327.226	0
337.272	1
338.278	0
339.236	0
341.274	1
349.246	0
355.281	0
357.235	0
365.258	0
367.272	18
369.281	0
383.254	2
385.272	13
385.286	3
387.282	0
447.341	0
459.328	0
461.369	0
471.351	0
475.365	0
475.389	0
487.371	1
489.388	0
501.39	0
501.41	0
503.413	1
507.46	0
513.375	0
515.405	0
527.414	0
529.427	0
531.444	0
531.474	0
535.382	0
541.419	0
543.455	1
545.358	0
549.462	1
549.487	0
553.415	0
555.44	0
575.418	0
597.465	0
598.471	0
598.495	0
598.528	0
599.502	24
599.554	0
600.507	47
601.505	0
602.51	0
602.539	0
603.473	0
605.485	0
621.437	0
621.461	1
621.492	2
621.533	1
621.549	2
621.57	1
621.596	0
623.499	999
624.503	27
625.482	1
625.524	4
625.544	0
627.542	0
639.497	1
641.509	1
641.546	0
677.478	0
693.334	0
695.501	159
696.471	0
696.502	3
696.533	0
711.501	0
713.502	0
761.562	0
771.605	0
787.595	0
789.61	0
801.605	0
811.618	0
815.627	0
829.662	0
841.633	0
843.658	0
853.662	0
855.649	0
862.754	0
869.656	0
880.719	0
880.738	2
880.766	2
881.64	0
881.684	0
897.756	1
897.792	1
933.715	2
933.739	1
933.765	1
951.738	46
952.698	0
952.733	0
952.779	0
965.752	0
968.766	260
969.755	1
969.774	6
969.812	0
