Mass spectrum: TG 60:11; LC-ESI-QTOF; MS2
Name: TG 60:11
Class:  TAG
Formula: C63H100O6
Exact mass: 953.487
SMILES: CCCCCCCCCCCCCCCC(=O)OCC(COC(=O)CC\C=C/C\C=C/C\C=C/C\C=C/C\C=C/C\C=C/CC)OC(=O)CCCCC\C=C/C\C=C/C\C=C/C\C=C/C\C=C/CC
InChI: InChI=1S/C63H100O6/c1-4-7-10-13-16-19-22-25-27-29-31-33-35-38-41-44-47-50-53-56-62(65)68-59-60(58-67-61(64)55-52-49-46-43-40-37-24-21-18-15-12-9-6-3)69-63(66)57-54-51-48-45-42-39-36-34-32-30-28-26-23-20-17-14-11-8-5-2/h7-8,10-11,16-17,19-20,25-28,31-34,38-39,41-42,47,50,60H,4-6,9,12-15,18,21-24,29-30,35-37,40,43-46,48-49,51-59H2,1-3H3/b10-7-,11-8-,19-16-,20-17-,27-25-,28-26-,33-31-,34-32-,41-38-,42-39-,50-47-
Instrument: AB Sciex TripleTOF 5600+ system (Q-TOF) equipped with a DuoSpray ion source
Instrument type: LC-ESI-QTOF
Ms type: MS2
Ion mode: POSITIVE
Collision energy: 45V
Column name: Acquity UPLC Peptide BEH C18 column (50*2.1 mm; 1.7 um; 130A)(Waters Co.,Milford, MA, USA)
Retention time: 14.12616
Precursor type: [M+NH4]+
Precursor m/z: 970.788
Intensity: 3413
m/z	relative intensity
81.072	53
91.053	45
95.085	52
105.067	30
109.102	27
117.068	27
119.082	55
121.101	33
131.083	45
133.101	50
135.118	42
157.1	30
159.114	26
161.133	35
171.113	60
175.149	30
181.1	27
183.118	42
185.134	44
187.146	50
199.155	30
201.163	91
203.18	199
211.149	40
213.163	65
227.18	61
265.256	30
267.21	30
269.226	106
271.237	17
283.247	12
285.218	22
287.227	37
287.242	96
293.222	68
293.243	12
295.242	50
311.23	40
311.243	42
313.251	45
313.268	88
319.255	22
337.271	167
337.29	27
339.288	258
339.307	32
343.268	15
361.274	45
363.283	12
367.275	28
369.274	14
383.265	12
385.271	70
387.292	48
393.299	31
491.386	9
557.466	10
599.486	145
599.509	155
599.523	70
621.488	27
623.485	453
623.507	396
623.524	238
625.492	148
625.522	570
641.509	9
647.513	30
649.486	117
649.517	999
649.536	199
650.501	13
651.516	14
651.54	25
671.467	33
671.501	223
671.528	43
673.504	70
673.522	48
673.541	41
697.522	27
699.522	4
777.605	9
801.577	5
825.672	8
827.714	7
829.653	4
841.619	4
869.705	9
888.721	20
902.745	13
927.729	35
927.789	12
935.771	28
944.759	55
944.795	42
944.836	12
953.732	27
953.753	81
953.776	45
954.758	14
970.78	579
970.81	252
971.772	12
