Mass spectrum: TG 60:12; LC-ESI-QTOF; MS2
Name: TG 60:12
Class:  TAG
Formula: C63H98O6
Exact mass: 951.471
SMILES: CCCCC\C=C/C\C=C/C\C=C/C\C=C/CCCC(=O)OC(COC(=O)CCCCCCCC\C=C/C=C\CCCCC)COC(=O)CC\C=C/C\C=C/C\C=C/C\C=C/C\C=C/C\C=C/CC
InChI: InChI=1S/C63H98O6/c1-4-7-10-13-16-19-22-25-28-30-31-33-35-38-41-44-47-50-53-56-62(65)68-59-60(58-67-61(64)55-52-49-46-43-40-37-34-27-24-21-18-15-12-9-6-3)69-63(66)57-54-51-48-45-42-39-36-32-29-26-23-20-17-14-11-8-5-2/h7,10,16-21,24-29,31,33,36,38-39,41,45,47-48,50,60H,4-6,8-9,11-15,22-23,30,32,34-35,37,40,42-44,46,49,51-59H2,1-3H3/b10-7-,19-16-,20-17-,21-18-,27-24-,28-25-,29-26-,33-31-,39-36-,41-38-,48-45-,50-47-
Instrument: AB Sciex TripleTOF 5600+ system (Q-TOF) equipped with a DuoSpray ion source
Instrument type: LC-ESI-QTOF
Ms type: MS2
Ion mode: POSITIVE
Collision energy: 45V
Column name: Acquity UPLC Peptide BEH C18 column (50*2.1 mm; 1.7 um; 130A)(Waters Co.,Milford, MA, USA)
Retention time: 13.94088
Precursor type: [M+NH4]+
Precursor m/z: 968.7706
Intensity: 5311
m/z	relative intensity
79.053	25
81.069	30
83.085	13
91.053	28
93.069	35
95.084	33
105.069	22
107.085	22
109.101	24
117.069	26
119.085	24
121.102	26
123.117	15
129.07	10
131.084	30
133.1	20
135.113	17
141.065	10
143.084	11
145.1	22
147.118	12
149.132	15
157.101	18
159.116	29
161.094	10
161.133	23
163.149	12
169.101	19
171.115	29
173.133	36
175.149	19
181.099	15
183.117	29
185.132	46
187.147	40
189.124	15
195.117	10
197.131	27
199.148	39
201.164	109
203.175	11
209.132	16
211.149	29
213.164	19
215.183	12
223.15	17
225.161	10
227.182	23
229.159	13
239.178	14
247.243	15
265.192	11
265.252	46
267.211	82
268.998	10
269.22	15
283.205	6
283.246	5
285.222	64
287.234	5
291.209	8
293.225	52
293.24	10
295.242	5
297.213	5
309.218	6
311.237	58
313.254	5
321.287	5
323.292	4
337.274	24
337.3	4
339.288	362
340.299	8
341.25	7
357.242	6
359.257	17
367.27	8
385.253	8
385.277	43
390.989	8
391.007	7
393.28	5
393.301	13
393.324	5
472.992	4
515.409	4
549.454	3
557.463	6
595.455	6
599.519	7
621.48	10
621.532	4
622.49	2
623.502	989
624.498	28
624.524	17
625.519	13
625.549	5
647.49	16
647.508	22
647.537	11
649.519	999
650.516	35
650.556	6
667.516	4
667.546	4
669.466	49
669.487	146
669.513	33
671.496	10
685.468	2
719.007	2
801.037	3
829.63	2
841.637	4
869.675	2
886.674	6
886.717	4
933.739	10
951.707	21
951.734	61
951.764	36
951.817	3
952.729	5
952.788	3
961.698	6
968.698	16
968.771	719
969.751	19
969.776	20
969.797	13
