Mass spectrum: TG 57:4; LC-ESI-QTOF; MS2
Name: TG 57:4
Class:  TAG
Formula: C60H108O6
Exact mass: 925.518
SMILES: CCCCCCCCC\C=C/C=C\CCCCCCCC(=O)OCC(COC(=O)CCCCCCCCC\C=C/CCCCCC)OC(=O)CCCCCCCCC\C=C/CCCCCC
InChI: InChI=1S/C60H108O6/c1-4-7-10-13-16-19-22-25-28-29-30-33-35-38-41-44-47-50-53-59(62)65-56-57(66-60(63)54-51-48-45-42-39-36-32-27-24-21-18-15-12-9-6-3)55-64-58(61)52-49-46-43-40-37-34-31-26-23-20-17-14-11-8-5-2/h20-21,23-24,28-30,33,57H,4-19,22,25-27,31-32,34-56H2,1-3H3/b23-20-,24-21-,29-28-,33-30-
Instrument: AB Sciex TripleTOF 5600+ system (Q-TOF) equipped with a DuoSpray ion source
Instrument type: LC-ESI-QTOF
Ms type: MS2
Ion mode: POSITIVE
Collision energy: 45V
Column name: Acquity UPLC Peptide BEH C18 column (50*2.1 mm; 1.7 um; 130A)(Waters Co.,Milford, MA, USA)
Retention time: 15.07585
Precursor type: [M+NH4]+
Precursor m/z: 942.8438
Intensity: 3939
m/z	relative intensity
81.073	18
83.083	9
95.085	24
97.098	16
109.1	18
123.114	10
163.151	12
175.145	8
177.161	10
245.226	27
247.243	14
261.221	10
263.225	19
263.239	37
265.252	36
279.264	15
289.255	5
291.266	7
293.281	15
301.208	5
307.297	18
319.262	22
319.279	7
337.272	13
339.284	18
339.313	5
353.303	10
367.333	6
381.337	7
383.355	5
573.482	37
573.504	10
573.517	13
575.474	37
575.496	164
575.514	84
575.538	16
577.513	167
579.525	21
587.488	45
587.508	22
589.509	16
599.473	16
599.488	78
599.507	89
599.532	26
601.515	604
603.517	25
603.541	27
615.517	134
615.535	216
615.565	29
617.528	33
617.561	49
619.565	33
627.523	34
629.514	21
629.539	180
629.561	171
631.546	18
631.573	19
641.544	11
643.556	378
643.581	58
645.579	999
646.575	16
647.593	19
655.569	11
657.546	12
657.58	45
659.58	13
669.587	12
671.569	12
671.598	21
771.648	2
785.686	3
827.735	4
852.803	4
857.726	10
857.783	12
859.793	2
860.733	7
860.755	22
860.783	13
874.767	24
874.817	13
883.742	10
883.784	42
884.721	5
884.757	21
884.806	16
907.8	18
925.787	41
925.816	61
925.834	24
942.747	16
942.837	345
942.871	46
943.835	8
