Mass spectrum: TG 49:1; LC-ESI-QTOF; MS2
Name: TG 49:1
Class:  TAG
Formula: C52H98O6
Exact mass: 819.35
SMILES: CCCCCCCCCCCCCCCC(=O)OC(COC(=O)CCCCCCCCCCCCCC)COC(=O)CCCCCCCCC\C=C/CCCCCC
InChI: InChI=1S/C52H98O6/c1-4-7-10-13-16-19-22-25-26-28-30-33-36-39-42-45-51(54)57-48-49(47-56-50(53)44-41-38-35-32-29-24-21-18-15-12-9-6-3)58-52(55)46-43-40-37-34-31-27-23-20-17-14-11-8-5-2/h19,22,49H,4-18,20-21,23-48H2,1-3H3/b22-19-
Instrument: AB Sciex TripleTOF 5600+ system (Q-TOF) equipped with a DuoSpray ion source
Instrument type: LC-ESI-QTOF
Ms type: MS2
Ion mode: POSITIVE
Collision energy: 45V
Column name: Acquity UPLC Peptide BEH C18 column (50*2.1 mm; 1.7 um; 130A)(Waters Co.,Milford, MA, USA)
Retention time: 14.58485
Precursor type: [M+NH4]+
Precursor m/z: 836.7658
Intensity: 14158
m/z	relative intensity
71.085	11
79.054	2
81.069	13
83.084	11
85.101	9
95.084	22
97.101	10
99.118	2
107.085	2
109.102	19
111.116	5
121.095	1
121.101	4
123.111	2
123.119	6
125.133	3
135.117	8
137.132	4
149.132	4
151.149	3
163.151	3
165.163	3
179.181	2
211.206	3
219.212	2
221.222	2
225.219	16
233.235	2
237.218	3
239.235	41
247.243	8
251.24	11
253.249	4
265.25	23
283.262	0
295.27	0
297.284	1
299.259	5
311.261	1
313.272	15
321.277	0
325.275	2
327.293	1
339.29	2
344.987	1
389.413	0
426.976	0
509.0	2
509.46	2
521.442	2
521.463	2
523.439	1
523.473	17
523.5	2
535.467	13
535.489	5
535.803	2
537.487	394
549.468	26
549.49	80
551.502	209
561.739	2
561.773	2
563.503	999
564.505	2
565.49	8
565.509	33
565.53	39
565.571	1
575.716	1
577.518	477
579.533	3
591.536	67
605.545	3
651.54	1
801.721	1
819.732	2
834.138	0
836.714	3
836.752	29
836.779	46
836.823	3
