Mass spectrum: TG 56:7; LC-ESI-QTOF; MS2
Name: TG 56:7
Class:  TAG
Formula: C59H100O6
Exact mass: 905.443
SMILES: CCCCCC\C=C/CCCCCCCCCC(=O)OCC(COC(=O)CCC\C=C/C\C=C/C\C=C/C\C=C/CCCCC)OC(=O)CCCCCCCC\C=C/C=C\CCCCC
InChI: InChI=1S/C59H100O6/c1-4-7-10-13-16-19-22-25-28-29-32-34-37-40-43-46-49-52-58(61)64-55-56(65-59(62)53-50-47-44-41-38-35-31-27-24-21-18-15-12-9-6-3)54-63-57(60)51-48-45-42-39-36-33-30-26-23-20-17-14-11-8-5-2/h16,18-21,23-25,27-28,32,34,40,43,56H,4-15,17,22,26,29-31,33,35-39,41-42,44-55H2,1-3H3/b19-16-,21-18-,23-20-,27-24-,28-25-,34-32-,43-40-
Instrument: AB Sciex TripleTOF 5600+ system (Q-TOF) equipped with a DuoSpray ion source
Instrument type: LC-ESI-QTOF
Ms type: MS2
Ion mode: POSITIVE
Collision energy: 45V
Column name: Acquity UPLC Peptide BEH C18 column (50*2.1 mm; 1.7 um; 130A)(Waters Co.,Milford, MA, USA)
Retention time: 14.25085
Precursor type: [M+NH4]+
Precursor m/z: 922.7822
Intensity: 17405
m/z	relative intensity
71.087	2
77.038	2
79.054	8
81.07	19
83.085	8
85.065	1
85.1	2
91.053	13
93.069	8
95.085	22
97.064	2
97.101	6
99.08	2
105.069	7
107.086	8
109.101	12
111.118	2
117.064	2
117.071	5
119.084	15
121.1	14
123.117	8
129.072	2
131.085	9
133.101	13
135.117	14
137.132	3
143.088	2
145.103	6
147.117	8
149.095	2
149.133	7
151.146	3
157.102	7
159.115	6
161.131	10
163.149	8
165.162	3
167.142	2
171.117	14
173.131	9
175.113	3
175.148	15
177.164	6
183.116	2
185.132	15
187.146	9
187.159	2
189.126	2
189.164	17
191.179	6
199.147	9
201.164	12
203.141	3
203.179	77
207.176	2
213.164	8
215.177	3
227.178	3
241.194	2
241.205	1
243.21	5
245.225	11
247.239	9
247.253	2
259.204	3
259.242	9
263.236	24
265.252	30
267.211	3
269.225	80
271.238	2
273.219	1
285.218	4
285.231	2
287.237	88
288.242	2
289.244	1
295.247	2
301.252	1
311.237	1
313.246	1
313.268	6
315.273	1
317.245	1
319.26	7
319.277	1
321.267	1
321.288	1
325.257	1
335.256	1
337.274	100
339.289	108
340.284	1
343.261	4
343.278	1
359.256	1
361.274	2
367.288	1
369.28	1
391.286	4
393.295	3
393.309	1
461.348	1
465.384	1
473.37	0
485.361	1
499.383	1
513.391	0
527.476	1
531.45	2
531.472	1
533.469	2
539.441	0
549.432	0
549.465	7
551.46	1
551.473	1
551.5	1
555.41	0
557.443	1
567.485	1
573.473	3
573.497	3
575.492	14
575.512	15
577.528	1
597.479	1
599.495	5
599.512	4
599.532	1
599.631	1
599.656	2
601.517	999
602.523	37
603.547	2
603.568	1
619.524	2
621.564	0
623.502	258
624.504	6
624.525	2
625.519	220
626.504	2
626.54	1
627.517	3
627.533	3
627.552	1
639.5	1
641.494	1
641.521	2
643.515	2
643.557	1
649.498	7
649.524	20
651.552	1
671.568	0
685.588	0
695.529	0
699.63	0
709.553	0
737.574	0
749.615	0
751.625	0
753.606	0
767.634	0
781.637	0
793.631	1
793.698	0
795.705	0
807.653	1
821.68	0
821.723	0
835.682	0
840.67	0
840.711	2
840.74	1
877.708	0
877.749	0
887.737	9
887.764	5
887.781	2
893.707	0
905.761	101
905.837	1
906.744	2
906.778	3
913.71	0
913.764	0
919.863	1
922.656	0
922.699	2
922.782	193
922.821	22
923.745	1
923.77	4
923.804	3
923.828	3
