Mass spectrum: AC 14:0; LC-ESI-QTOF; MS2
Name: AC 14:0
Class:  AcylCarnitine
Formula: C21H42NO4
Exact mass: 372.57
SMILES: CCCCCCCCCCCCCC(=O)OC(CC(O)=O)C[N+](C)(C)C
InChI: InChI=1S/C21H41NO4/c1-5-6-7-8-9-10-11-12-13-14-15-16-21(25)26-19(17-20(23)24)18-22(2,3)4/h19H,5-18H2,1-4H3/p+1
Instrument: AB Sciex TripleTOF 5600+ system (Q-TOF) equipped with a DuoSpray ion source
Instrument type: LC-ESI-QTOF
Ms type: MS2
Ion mode: POSITIVE
Collision energy: 45V
Column name: Acquity UPLC Peptide BEH C18 column (50*2.1 mm; 1.7 um; 130A)(Waters Co.,Milford, MA, USA)
Retention time: 5.321845
Precursor type: [M+H]+
Precursor m/z: 372.3108
Intensity: 2635
m/z	relative intensity
81.069	14
84.766	5
85.028	999
85.096	8
85.108	12
95.087	14
109.098	5
123.119	6
129.078	10
144.101	36
165.073	6
211.208	32
313.235	34
355.103	24
372.308	118
372.326	27
