Mass spectrum: TG 54:1; LC-ESI-QTOF; MS2
Name: TG 54:1
Class:  TAG
Formula: C57H108O6
Exact mass: 889.485
SMILES: CCCCCCCCCCCCCCCCCC(=O)OCC(COC(=O)CCCCCCCCC\C=C/CCCCCC)OC(=O)CCCCCCCCCCCCCCCCC
InChI: InChI=1S/C57H108O6/c1-4-7-10-13-16-19-22-25-28-31-34-37-40-43-46-49-55(58)61-52-54(63-57(60)51-48-45-42-39-36-33-30-27-24-21-18-15-12-9-6-3)53-62-56(59)50-47-44-41-38-35-32-29-26-23-20-17-14-11-8-5-2/h19,22,54H,4-18,20-21,23-53H2,1-3H3/b22-19-
Instrument: AB Sciex TripleTOF 5600+ system (Q-TOF) equipped with a DuoSpray ion source
Instrument type: LC-ESI-QTOF
Ms type: MS2
Ion mode: POSITIVE
Collision energy: 45V
Column name: Acquity UPLC Peptide BEH C18 column (50*2.1 mm; 1.7 um; 130A)(Waters Co.,Milford, MA, USA)
Retention time: 15.60986
Precursor type: [M+NH4]+
Precursor m/z: 906.8484
Intensity: 733
m/z	relative intensity
81.07	10
83.084	5
85.1	8
95.083	15
97.101	6
109.099	6
123.115	4
165.164	4
226.984	7
239.243	12
247.242	8
265.247	22
267.265	16
267.282	9
282.975	1
284.299	2
292.952	1
293.28	9
295.3	3
302.973	2
313.024	1
313.282	3
326.918	1
339.291	4
341.305	13
349.317	1
367.326	1
408.877	2
433.012	2
434.949	2
549.489	12
551.489	10
551.509	15
551.523	5
551.534	5
577.49	21
577.515	152
577.544	41
578.512	9
579.533	128
579.567	8
580.547	7
605.551	999
605.589	46
606.545	10
606.576	14
607.565	580
608.548	5
608.581	5
633.562	63
633.581	245
633.598	62
633.607	57
634.589	7
635.594	18
661.616	7
786.881	1
822.873	1
830.836	2
871.815	1
889.826	6
906.749	15
906.778	8
906.811	15
906.824	22
906.849	85
906.885	25
907.077	1
