Mass spectrum: TG 51:4; LC-ESI-QTOF; MS2
Name: TG 51:4
Class:  TAG
Formula: C54H96O6
Exact mass: 841.356
SMILES: CCCCCCCCCCCCCCCC(=O)OCC(COC(=O)CCCCCCCC\C=C/C=C\CCCCC)OC(=O)CCCCCCCCC\C=C/C\C=C/CC
InChI: InChI=1S/C54H96O6/c1-4-7-10-13-16-19-22-25-27-30-32-35-38-41-44-47-53(56)59-50-51(49-58-52(55)46-43-40-37-34-31-28-24-21-18-15-12-9-6-3)60-54(57)48-45-42-39-36-33-29-26-23-20-17-14-11-8-5-2/h8,11,16-17,19-20,22,25,51H,4-7,9-10,12-15,18,21,23-24,26-50H2,1-3H3/b11-8-,19-16-,20-17-,25-22-
Instrument: AB Sciex TripleTOF 5600+ system (Q-TOF) equipped with a DuoSpray ion source
Instrument type: LC-ESI-QTOF
Ms type: MS2
Ion mode: POSITIVE
Collision energy: 45V
Column name: Acquity UPLC Peptide BEH C18 column (50*2.1 mm; 1.7 um; 130A)(Waters Co.,Milford, MA, USA)
Retention time: 14.11229
Precursor type: [M+NH4]+
Precursor m/z: 858.7559
Intensity: 1132
m/z	relative intensity
81.071	30
93.069	17
95.083	17
107.083	8
109.099	28
121.101	8
123.12	11
149.132	12
151.147	10
177.163	8
186.994	16
189.169	8
203.184	10
225.217	8
225.23	17
226.99	21
245.224	21
261.222	27
263.236	61
263.26	14
268.994	11
284.979	7
297.238	7
299.251	19
313.275	10
317.265	12
319.268	21
337.259	8
337.275	23
339.286	13
366.932	5
390.999	23
433.007	12
473.004	16
475.377	5
557.453	12
559.467	56
559.501	19
559.734	14
561.483	999
561.51	124
562.489	21
563.475	14
563.499	54
573.485	48
573.513	21
575.488	50
575.51	36
585.469	20
585.496	67
587.505	63
589.517	14
599.493	366
599.515	240
600.507	16
601.516	43
601.551	16
603.53	56
776.695	5
799.666	14
799.695	25
823.715	12
841.637	16
841.656	19
841.671	19
841.713	58
841.739	48
841.765	30
858.685	17
858.744	106
858.776	30
858.8	27
859.752	9
