Mass spectrum: TG 56:7; LC-ESI-QTOF; MS2
Name: TG 56:7
Class:  TAG
Formula: C59H100O6
Exact mass: 905.443
SMILES: CCCCCCCCCCCCCCCC(=O)OCC(COC(=O)CCCCC\C=C/C\C=C/C\C=C/C\C=C/C\C=C/CC)OC(=O)CCCCCCCC\C=C/C=C\CCCCC
InChI: InChI=1S/C59H100O6/c1-4-7-10-13-16-19-22-25-27-28-29-30-32-34-37-40-43-46-49-52-58(61)64-55-56(54-63-57(60)51-48-45-42-39-36-33-24-21-18-15-12-9-6-3)65-59(62)53-50-47-44-41-38-35-31-26-23-20-17-14-11-8-5-2/h7,10,16-17,19-20,23,25-27,29-30,34,37,56H,4-6,8-9,11-15,18,21-22,24,28,31-33,35-36,38-55H2,1-3H3/b10-7-,19-16-,20-17-,26-23-,27-25-,30-29-,37-34-
Instrument: AB Sciex TripleTOF 5600+ system (Q-TOF) equipped with a DuoSpray ion source
Instrument type: LC-ESI-QTOF
Ms type: MS2
Ion mode: POSITIVE
Collision energy: 45V
Column name: Acquity UPLC Peptide BEH C18 column (50*2.1 mm; 1.7 um; 130A)(Waters Co.,Milford, MA, USA)
Retention time: 14.24161
Precursor type: [M+NH4]+
Precursor m/z: 922.7847
Intensity: 59763
m/z	relative intensity
71.085	1
77.038	2
79.053	10
81.069	26
83.084	9
85.064	2
85.099	2
91.053	17
93.069	12
95.085	30
97.061	1
97.069	1
97.099	8
99.081	2
105.068	14
107.084	10
109.1	16
111.08	2
111.115	3
113.095	1
117.068	8
119.084	10
121.099	18
123.08	1
123.116	11
125.095	3
125.13	1
127.111	1
129.068	2
131.085	10
133.1	19
135.08	2
135.115	13
137.095	1
137.132	6
139.11	1
143.083	3
145.1	8
147.116	9
149.095	1
149.131	7
151.147	3
153.126	2
157.1	7
159.116	6
161.095	2
161.131	13
163.108	1
163.117	1
163.146	10
165.125	1
165.163	3
167.141	1
169.104	2
171.116	17
173.132	11
175.111	3
175.148	17
177.124	1
177.164	9
179.142	1
179.177	1
181.103	0
181.158	1
183.118	1
185.131	16
187.146	11
189.126	3
189.162	19
191.14	1
191.179	5
193.153	0
195.173	0
197.132	1
199.146	12
201.126	1
201.164	14
203.14	2
203.179	95
205.157	1
205.196	2
211.148	2
213.163	8
215.178	5
217.159	1
217.195	2
219.173	1
221.189	1
225.163	2
227.18	6
229.197	1
231.173	1
231.21	1
239.177	1
239.242	1
241.195	4
243.212	4
245.226	12
247.241	9
257.23	1
259.203	4
259.242	10
261.218	3
263.237	26
265.252	34
267.213	5
269.226	92
271.239	3
271.252	1
273.26	0
283.206	0
283.237	0
285.222	8
287.237	106
288.241	1
289.243	1
289.256	1
295.243	2
301.254	1
309.237	0
311.236	1
311.264	0
313.242	2
313.258	6
313.283	3
315.263	1
317.246	1
319.262	7
319.277	1
321.276	2
325.254	1
329.258	0
335.252	2
335.266	1
337.273	110
338.234	0
338.273	1
339.289	126
340.295	1
341.295	0
343.261	4
345.276	0
359.253	1
361.274	3
369.276	1
391.265	1
391.279	3
393.299	4
407.325	0
451.383	0
459.345	1
461.361	1
465.409	0
487.376	1
489.38	0
499.376	1
503.414	0
527.474	1
527.495	1
531.452	3
531.467	1
533.484	1
549.465	6
551.48	5
567.481	1
573.484	2
573.502	1
575.502	46
576.507	2
599.482	3
599.502	12
599.536	1
599.629	1
599.649	1
601.397	1
601.517	999
602.521	49
602.547	4
603.501	2
603.536	11
605.495	0
615.525	0
619.533	1
623.502	267
624.479	0
624.502	3
625.518	271
626.504	2
626.525	3
627.509	0
627.539	5
639.494	0
641.508	2
641.532	1
643.531	1
647.493	0
649.52	37
651.536	2
677.549	0
699.57	0
713.565	0
727.595	0
737.585	0
739.591	0
741.594	0
753.614	1
755.66	0
767.626	1
769.628	0
777.65	0
779.587	0
779.647	0
781.611	0
781.655	0
793.617	1
793.643	0
793.682	0
795.674	0
807.637	0
807.674	0
807.709	0
821.653	0
821.683	1
821.712	0
835.681	0
839.724	0
840.703	0
840.737	0
863.741	0
877.724	1
879.738	0
887.722	6
887.746	6
887.775	3
888.725	0
897.767	0
902.928	0
905.683	0
905.759	111
906.738	0
906.769	1
906.799	1
914.718	0
919.889	0
922.784	176
923.724	0
923.768	2
923.793	4
