Mass spectrum: TG 54:2; LC-ESI-QTOF; MS2
Name: TG 54:2
Class:  TAG
Formula: C57H106O6
Exact mass: 887.4689999999999
SMILES: CCCCCCCCCCCCCCCC(=O)OCC(COC(=O)CCCCCCCCC\C=C/CCCCCCCC)OC(=O)CCCCCCCCC\C=C/CCCCCC
InChI: InChI=1S/C57H106O6/c1-4-7-10-13-16-19-22-25-27-28-30-32-35-38-41-44-47-50-56(59)62-53-54(52-61-55(58)49-46-43-40-37-34-31-24-21-18-15-12-9-6-3)63-57(60)51-48-45-42-39-36-33-29-26-23-20-17-14-11-8-5-2/h20,23,25,27,54H,4-19,21-22,24,26,28-53H2,1-3H3/b23-20-,27-25-
Instrument: AB Sciex TripleTOF 5600+ system (Q-TOF) equipped with a DuoSpray ion source
Instrument type: LC-ESI-QTOF
Ms type: MS2
Ion mode: POSITIVE
Collision energy: 45V
Column name: Acquity UPLC Peptide BEH C18 column (50*2.1 mm; 1.7 um; 130A)(Waters Co.,Milford, MA, USA)
Retention time: 15.19785
Precursor type: [M+NH4]+
Precursor m/z: 904.8306
Intensity: 60903
m/z	relative intensity
71.085	5
79.053	2
81.069	14
83.084	9
85.1	5
91.055	0
93.069	3
95.085	19
97.063	0
97.1	11
99.078	0
99.117	1
107.084	2
109.1	13
111.081	0
111.116	6
113.095	0
119.089	0
121.1	9
123.115	6
125.131	2
127.112	0
133.102	0
135.117	9
137.131	3
139.113	0
149.132	4
151.147	3
153.127	1
163.149	3
165.164	3
167.143	0
175.146	0
177.165	1
179.182	1
183.173	0
191.18	1
193.19	0
205.194	1
221.229	0
237.22	0
239.236	5
245.226	3
247.241	13
249.256	2
263.238	7
265.253	50
267.269	16
273.237	0
275.27	0
275.282	0
277.215	0
277.287	0
279.234	0
282.276	0
284.295	1
285.279	0
291.275	0
293.284	5
295.295	0
297.279	0
303.264	0
313.274	2
319.259	1
321.277	2
323.292	0
325.32	0
337.277	1
339.289	15
339.322	0
341.304	14
349.309	0
367.32	1
369.344	0
417.414	0
511.484	0
529.498	1
531.515	0
547.485	0
549.486	1
549.51	0
551.487	0
551.506	0
551.52	0
575.5	39
577.519	170
578.526	0
579.504	1
579.536	4
579.575	0
589.52	0
591.535	0
599.486	3
599.508	2
601.504	1
601.521	1
601.543	0
601.62	0
601.649	0
601.664	0
601.681	0
603.382	0
603.421	0
603.533	788
604.535	3
604.559	1
605.341	0
605.398	0
605.443	0
605.548	999
606.036	0
606.547	3
606.568	2
607.565	100
608.56	0
627.516	1
627.536	3
629.594	0
631.567	196
632.577	0
633.581	12
659.579	0
659.606	0
687.615	0
761.668	0
775.727	0
869.75	0
869.793	2
883.592	0
883.779	53
883.838	0
884.733	0
884.792	0
887.771	2
887.809	12
887.848	1
887.868	0
901.968	0
904.598	0
904.758	0
904.834	118
905.832	0
905.884	0
