Mass spectrum: TG 56:5; LC-ESI-QTOF; MS2
Name: TG 56:5
Class:  TAG
Formula: C59H104O6
Exact mass: 909.475
SMILES: CCCCCCCC\C=C/CCCCCCCCCC(=O)OCC(COC(=O)CCCCCCCC\C=C/C=C\CCCCC)OC(=O)CCCCCCCC\C=C/C=C\CCCCC
InChI: InChI=1S/C59H104O6/c1-4-7-10-13-16-19-22-25-28-29-32-34-37-40-43-46-49-52-58(61)64-55-56(65-59(62)53-50-47-44-41-38-35-31-27-24-21-18-15-12-9-6-3)54-63-57(60)51-48-45-42-39-36-33-30-26-23-20-17-14-11-8-5-2/h17-18,20-21,23-28,56H,4-16,19,22,29-55H2,1-3H3/b20-17-,21-18-,26-23-,27-24-,28-25-
Instrument: AB Sciex TripleTOF 5600+ system (Q-TOF) equipped with a DuoSpray ion source
Instrument type: LC-ESI-QTOF
Ms type: MS2
Ion mode: POSITIVE
Collision energy: 45V
Column name: Acquity UPLC Peptide BEH C18 column (50*2.1 mm; 1.7 um; 130A)(Waters Co.,Milford, MA, USA)
Retention time: 14.60254
Precursor type: [M+NH4]+
Precursor m/z: 926.8124
Intensity: 7097
m/z	relative intensity
79.053	4
81.07	18
83.085	6
91.053	3
93.07	5
95.085	18
97.101	6
99.081	1
105.07	3
107.084	4
109.101	12
111.117	3
119.087	3
121.1	9
123.118	7
133.1	4
135.118	8
137.127	2
137.137	2
147.115	3
149.134	7
151.144	2
161.134	4
163.148	7
165.166	1
173.133	1
175.148	7
177.159	3
177.17	2
189.164	5
191.178	2
203.177	5
204.188	2
243.212	4
245.227	16
247.243	2
261.221	8
263.235	47
265.256	10
269.223	3
270.231	2
271.24	3
273.257	1
275.271	3
275.284	1
287.239	4
288.238	1
289.246	4
289.259	2
291.267	3
293.285	20
301.263	1
313.252	1
314.256	1
317.243	2
319.261	10
321.286	1
335.261	1
337.273	22
339.274	1
339.289	9
341.299	1
342.301	1
345.273	2
347.291	1
349.314	1
365.306	2
367.319	17
367.341	2
475.392	1
507.446	1
525.437	1
525.465	3
531.439	1
537.495	2
543.475	4
553.497	1
555.508	2
555.538	1
571.492	1
573.477	1
573.526	1
575.511	1
577.515	7
577.546	1
578.517	15
578.541	4
579.534	9
581.535	1
585.48	1
587.511	1
597.643	1
599.503	539
600.505	12
600.534	2
601.519	100
602.519	2
603.529	49
604.553	6
605.541	19
613.509	1
615.537	2
623.5	1
624.5	3
625.497	5
625.525	5
627.532	172
628.517	1
628.539	7
629.551	999
630.509	1
630.552	22
631.557	18
631.58	14
632.579	1
643.546	1
643.575	1
645.532	1
647.576	1
652.539	1
653.54	6
655.549	1
657.572	1
671.583	0
673.587	0
685.529	0
699.544	0
701.569	0
713.572	0
713.652	0
715.593	0
755.61	0
771.664	0
783.653	1
785.666	0
797.638	0
797.663	0
797.685	1
797.726	0
811.648	0
811.686	1
811.719	0
825.704	1
839.706	0
844.722	0
844.763	1
891.745	4
891.773	8
891.803	5
892.774	0
905.745	0
906.745	0
909.756	18
909.792	147
910.766	3
910.802	3
910.848	0
923.931	0
926.695	0
926.721	1
926.811	207
926.871	10
926.93	1
927.801	3
927.828	5
