Mass spectrum: TG 55:3; LC-ESI-QTOF; MS2
Name: TG 55:3
Class:  TAG
Formula: C58H106O6
Exact mass: 899.4799999999999
SMILES: CCCCCCCCCCCCCCCCCC(=O)OCC(COC(=O)CCCCCCC\C=C/CCCCCCCCC)OC(=O)CCCCCCCC\C=C/C=C\CCCCC
InChI: InChI=1S/C58H106O6/c1-4-7-10-13-16-19-22-25-28-31-33-36-39-42-45-48-51-57(60)63-54-55(64-58(61)52-49-46-43-40-37-34-30-27-24-21-18-15-12-9-6-3)53-62-56(59)50-47-44-41-38-35-32-29-26-23-20-17-14-11-8-5-2/h18,21,24,27-28,31,55H,4-17,19-20,22-23,25-26,29-30,32-54H2,1-3H3/b21-18-,27-24-,31-28-
Instrument: AB Sciex TripleTOF 5600+ system (Q-TOF) equipped with a DuoSpray ion source
Instrument type: LC-ESI-QTOF
Ms type: MS2
Ion mode: POSITIVE
Collision energy: 45V
Column name: Acquity UPLC Peptide BEH C18 column (50*2.1 mm; 1.7 um; 130A)(Waters Co.,Milford, MA, USA)
Retention time: 15.01674
Precursor type: [M+NH4]+
Precursor m/z: 916.8298
Intensity: 2500
m/z	relative intensity
81.069	10
83.086	10
89.06	8
95.085	24
97.1	16
109.102	8
121.102	13
133.084	12
149.132	11
221.151	9
245.229	8
247.236	10
263.228	25
263.249	15
265.254	34
265.269	12
279.268	20
281.299	3
291.26	5
307.309	3
319.27	7
321.272	3
337.284	5
339.285	19
353.31	12
355.327	12
381.33	3
441.268	5
573.49	13
575.496	43
575.525	19
589.52	94
589.548	13
591.533	17
601.52	363
601.558	28
603.532	385
603.56	54
605.558	20
615.536	109
615.566	15
615.577	12
617.554	999
617.642	10
619.567	403
629.546	48
629.574	21
631.554	24
631.591	12
643.567	49
645.593	8
857.724	3
881.808	7
899.556	10
899.809	38
913.942	3
916.591	19
916.774	10
916.806	49
916.834	154
916.874	51
