Mass spectrum: PG 32:0; LC-ESI-QTOF; MS2
Name: PG 32:0
Class:  PG
Formula: C38H75O10P
Exact mass: 722.9839999999999
SMILES: CCCCCCCCCCCCCCCC(=O)OCC(COP(O)(=O)OCC(O)CO)OC(=O)CCCCCCCCCCCCCCC
InChI: InChI=1S/C38H75O10P/c1-3-5-7-9-11-13-15-17-19-21-23-25-27-29-37(41)45-33-36(34-47-49(43,44)46-32-35(40)31-39)48-38(42)30-28-26-24-22-20-18-16-14-12-10-8-6-4-2/h35-36,39-40H,3-34H2,1-2H3,(H,43,44)
Instrument: AB Sciex TripleTOF 5600+ system (Q-TOF) equipped with a DuoSpray ion source
Instrument type: LC-ESI-QTOF
Ms type: MS2
Ion mode: POSITIVE
Collision energy: 45V
Column name: Acquity UPLC Peptide BEH C18 column (50*2.1 mm; 1.7 um; 130A)(Waters Co.,Milford, MA, USA)
Retention time: 8.570261
Precursor type: [M+NH4]+
Precursor m/z: 740.5418
Intensity: 19045
m/z	relative intensity
71.085	9
71.092	1
81.07	9
83.085	6
85.101	8
95.085	15
97.101	4
99.117	3
109.099	7
111.114	1
113.129	0
123.118	6
125.132	1
127.148	0
137.129	2
139.15	1
151.148	2
165.164	2
179.179	1
184.076	1
221.226	6
239.237	49
257.246	2
289.273	0
295.255	0
297.275	0
299.29	0
312.294	0
313.274	52
393.243	0
449.258	2
449.284	0
467.272	0
549.755	1
549.79	2
550.538	0
551.273	0
551.366	0
551.411	1
551.503	999
551.728	0
553.056	0
601.509	1
625.513	0
681.447	0
687.491	1
687.515	1
730.522	0
