Mass spectrum: TG 58:11; LC-ESI-QTOF; MS2
Name: TG 58:11
Class:  TAG
Formula: C61H96O6
Exact mass: 925.433
SMILES: CCCCC\C=C/C=C\CCCCCCCCC(=O)OCC(COC(=O)CC\C=C/C\C=C/C\C=C/C\C=C/C\C=C/C\C=C/CC)OC(=O)CCCCCCCCC\C=C/C=C\C=C/CC
InChI: InChI=1S/C61H96O6/c1-4-7-10-13-16-19-22-25-28-29-30-31-34-36-39-42-45-48-51-54-60(63)66-57-58(67-61(64)55-52-49-46-43-40-37-33-27-24-21-18-15-12-9-6-3)56-65-59(62)53-50-47-44-41-38-35-32-26-23-20-17-14-11-8-5-2/h7,9-10,12,15-21,23-26,28,30-31,36,39,45,48,58H,4-6,8,11,13-14,22,27,29,32-35,37-38,40-44,46-47,49-57H2,1-3H3/b10-7-,12-9-,18-15-,19-16-,20-17-,24-21-,26-23-,28-25-,31-30-,39-36-,48-45-
Instrument: AB Sciex TripleTOF 5600+ system (Q-TOF) equipped with a DuoSpray ion source
Instrument type: LC-ESI-QTOF
Ms type: MS2
Ion mode: POSITIVE
Collision energy: 45V
Column name: Acquity UPLC Peptide BEH C18 column (50*2.1 mm; 1.7 um; 130A)(Waters Co.,Milford, MA, USA)
Retention time: 13.83372
Precursor type: [M+NH4]+
Precursor m/z: 942.7527
Intensity: 14671
m/z	relative intensity
77.037	5
79.053	15
81.069	20
83.085	6
91.054	25
93.069	20
95.085	18
97.063	4
97.1	7
105.068	14
107.084	13
109.101	15
111.116	4
117.069	18
119.083	16
121.1	16
123.08	3
123.114	5
129.069	8
131.085	28
133.099	17
135.115	17
137.133	3
141.068	4
143.084	7
145.101	17
147.118	8
149.094	3
149.13	7
155.084	5
157.101	14
159.117	31
161.095	2
161.133	14
163.112	3
163.147	6
165.163	3
169.101	13
171.116	24
173.094	2
173.133	29
175.111	4
175.146	15
177.163	2
183.117	20
185.132	29
187.147	22
189.128	4
189.162	8
195.117	3
197.132	22
199.147	26
201.126	5
201.163	114
203.139	4
203.179	3
209.134	3
211.147	17
213.165	8
215.141	5
215.18	3
223.143	2
225.162	15
229.159	2
239.178	6
241.195	5
243.209	6
247.242	11
257.189	3
257.229	3
265.192	5
265.254	26
267.21	91
269.22	4
269.234	2
271.169	0
277.203	1
281.187	1
281.227	1
283.205	10
283.248	1
285.221	76
286.227	1
287.228	1
287.241	2
291.212	0
293.227	1
295.205	0
295.245	1
297.259	0
303.215	1
305.224	0
311.236	0
313.238	0
313.275	2
321.282	1
323.242	1
331.242	1
337.255	1
337.275	7
338.231	1
339.288	313
340.294	6
341.24	7
341.257	3
343.265	1
357.241	3
359.258	45
361.273	2
367.279	1
377.275	1
381.294	1
385.28	1
393.298	16
413.258	1
433.323	1
459.341	0
461.363	1
473.365	0
487.373	1
489.398	1
499.379	2
501.387	1
501.409	0
503.407	1
515.4	1
521.358	1
529.434	1
531.46	1
533.371	1
541.417	1
543.452	0
549.468	3
551.423	1
555.438	0
567.451	0
569.422	2
583.485	1
595.475	1
597.463	1
597.484	7
599.504	1
605.477	1
621.456	2
621.487	13
621.557	1
621.575	1
623.501	999
623.692	1
624.504	29
624.53	6
625.495	1
625.535	6
627.537	1
639.481	0
641.515	5
643.447	18
643.473	107
644.463	2
644.489	1
645.484	2
647.503	1
649.528	1
651.525	1
659.477	1
661.476	1
669.483	0
671.512	0
691.528	0
697.519	0
775.583	0
789.587	1
801.597	1
803.617	1
815.633	1
817.634	0
829.621	0
841.626	1
841.676	1
843.679	0
855.642	1
860.659	1
860.7	0
885.659	1
885.695	6
885.728	2
907.686	0
907.722	3
907.753	1
907.792	0
925.717	63
925.755	13
926.729	2
939.779	1
942.659	2
942.757	336
942.848	1
943.736	8
943.761	9
943.828	0
