Mass spectrum: TG 60:10; LC-ESI-QTOF; MS2
Name: TG 60:10
Class:  TAG
Formula: C63H102O6
Exact mass: 955.503
SMILES: CCCCCCCCCCCCCCCCCC(=O)OCC(COC(=O)CC\C=C/C\C=C/C\C=C/C\C=C/C\C=C/C\C=C/CC)OC(=O)CCC\C=C/C\C=C/C\C=C/C\C=C/CCCCC
InChI: InChI=1S/C63H102O6/c1-4-7-10-13-16-19-22-25-28-30-31-33-35-38-41-44-47-50-53-56-62(65)68-59-60(58-67-61(64)55-52-49-46-43-40-37-34-27-24-21-18-15-12-9-6-3)69-63(66)57-54-51-48-45-42-39-36-32-29-26-23-20-17-14-11-8-5-2/h7,10,16-17,19-20,25-26,28-29,31,33,36,38-39,41,45,47-48,50,60H,4-6,8-9,11-15,18,21-24,27,30,32,34-35,37,40,42-44,46,49,51-59H2,1-3H3/b10-7-,19-16-,20-17-,28-25-,29-26-,33-31-,39-36-,41-38-,48-45-,50-47-
Instrument: AB Sciex TripleTOF 5600+ system (Q-TOF) equipped with a DuoSpray ion source
Instrument type: LC-ESI-QTOF
Ms type: MS2
Ion mode: POSITIVE
Collision energy: 45V
Column name: Acquity UPLC Peptide BEH C18 column (50*2.1 mm; 1.7 um; 130A)(Waters Co.,Milford, MA, USA)
Retention time: 14.41969
Precursor type: [M+NH4]+
Precursor m/z: 972.7987
Intensity: 826
m/z	relative intensity
81.071	22
91.054	39
93.07	19
95.086	33
109.099	19
119.086	22
131.085	25
133.103	22
157.099	19
171.113	36
173.132	25
175.147	30
181.097	19
185.137	33
187.147	24
189.164	22
199.153	19
201.165	47
203.176	101
213.165	33
226.988	17
227.184	25
269.208	16
269.228	87
283.242	14
285.222	11
287.231	39
287.248	28
293.221	67
311.229	19
311.241	42
313.254	11
313.28	25
315.276	11
339.291	36
341.3	226
341.319	48
342.303	11
361.277	11
385.277	39
389.294	11
395.329	25
601.525	13
621.473	19
621.515	18
623.488	92
623.524	33
625.496	30
625.522	81
627.485	14
627.516	234
627.534	370
627.552	217
627.578	65
639.513	14
649.505	30
649.534	47
651.53	453
651.557	163
652.539	17
653.562	17
671.486	70
671.511	114
671.541	30
673.528	22
697.492	22
697.54	25
699.534	51
801.71	8
818.959	8
827.705	11
830.718	11
890.694	17
890.737	17
890.783	20
891.731	57
904.747	25
953.703	109
953.745	999
953.781	444
954.754	64
954.8	14
955.766	87
972.669	16
972.715	34
972.777	223
972.802	186
972.823	143
972.872	25
973.792	30
