Mass spectrum: TG 54:5; LC-ESI-QTOF; MS2
Name: TG 54:5
Class:  TAG
Formula: C57H100O6
Exact mass: 881.4209999999999
SMILES: CCCCCC\C=C/CCCCCCCCCC(=O)OCC(COC(=O)CCCCCCCC\C=C/C=C\CCCCC)OC(=O)CCCCCCCC\C=C/C=C\CCCCC
InChI: InChI=1S/C57H100O6/c1-4-7-10-13-16-19-22-25-28-31-34-37-40-43-46-49-55(58)61-52-54(63-57(60)51-48-45-42-39-36-33-30-27-24-21-18-15-12-9-6-3)53-62-56(59)50-47-44-41-38-35-32-29-26-23-20-17-14-11-8-5-2/h16,18-25,27,54H,4-15,17,26,28-53H2,1-3H3/b19-16-,21-18-,23-20-,25-22-,27-24-
Instrument: AB Sciex TripleTOF 5600+ system (Q-TOF) equipped with a DuoSpray ion source
Instrument type: LC-ESI-QTOF
Ms type: MS2
Ion mode: POSITIVE
Collision energy: 45V
Column name: Acquity UPLC Peptide BEH C18 column (50*2.1 mm; 1.7 um; 130A)(Waters Co.,Milford, MA, USA)
Retention time: 14.31004
Precursor type: [M+NH4]+
Precursor m/z: 898.7834
Intensity: 20450
m/z	relative intensity
71.086	1
77.038	0
79.053	5
81.069	18
83.084	6
85.101	2
91.054	3
93.068	6
95.085	20
97.064	1
97.101	6
99.078	1
99.086	1
105.067	2
107.086	5
109.1	12
111.08	2
111.117	2
113.095	1
119.085	2
121.1	12
123.116	8
125.133	0
127.111	0
131.086	1
133.101	4
135.117	8
137.097	0
137.132	3
145.103	1
147.117	3
149.131	5
151.147	2
153.127	2
159.117	2
161.131	7
163.148	8
165.127	0
165.161	3
167.142	0
171.117	0
173.135	2
175.147	8
177.165	4
179.144	1
179.178	1
187.149	2
189.164	4
191.178	2
193.154	0
195.176	0
199.149	0
201.163	1
203.179	2
207.174	1
215.177	1
217.197	0
221.198	0
233.229	1
237.219	1
239.236	3
243.211	5
245.226	14
247.24	8
249.186	0
261.22	15
263.237	47
264.244	0
265.253	29
271.242	3
273.259	0
277.216	1
285.22	0
287.236	1
289.252	11
291.269	0
299.237	0
301.258	1
303.275	0
311.264	1
313.274	6
315.265	0
317.25	4
319.262	12
321.261	0
321.287	1
323.277	0
333.252	0
335.26	2
337.275	23
339.289	26
340.295	0
343.262	0
345.275	3
361.271	0
363.294	1
377.268	0
387.349	1
393.312	0
417.375	0
427.386	0
461.359	0
463.379	0
475.387	0
501.386	0
503.4	0
507.452	1
515.416	0
525.464	6
527.487	3
543.461	1
543.48	3
543.495	1
545.492	2
549.497	2
551.479	1
551.503	0
552.496	2
553.492	0
553.52	1
571.47	1
573.485	7
573.524	0
575.504	90
576.487	0
576.51	3
577.498	1
577.52	4
581.494	1
583.49	0
585.487	0
585.511	0
587.49	0
587.509	0
589.52	0
597.487	9
597.509	1
597.62	0
597.639	1
598.486	0
599.502	659
600.504	25
601.518	999
602.519	30
602.549	5
603.533	114
604.522	2
604.541	2
615.494	1
615.517	1
615.541	0
617.516	2
624.51	1
625.516	71
626.517	1
626.549	0
627.53	24
629.54	0
641.549	0
671.53	0
673.541	0
683.603	0
685.553	0
687.55	0
697.594	0
699.549	0
711.603	0
725.64	0
727.596	0
729.59	0
755.604	0
755.637	1
755.691	0
757.65	0
769.609	0
769.64	1
769.681	0
771.655	0
783.638	0
783.672	1
783.703	0
797.647	0
797.697	1
811.663	0
845.737	0
863.746	20
864.735	0
864.789	0
866.695	2
866.73	5
866.76	3
878.987	0
881.761	137
882.724	0
882.755	4
882.802	0
895.904	0
895.988	0
898.588	0
898.671	0
898.785	160
898.885	0
899.714	0
899.765	5
899.804	6
899.851	0
903.713	0
