Mass spectrum: TG 52:6; LC-ESI-QTOF; MS2
Name: TG 52:6
Class:  TAG
Formula: C55H94O6
Exact mass: 851.3509999999999
SMILES: CCCCCCCC\C=C/CCCCCC(=O)OCC(COC(=O)CCCCCCCCC\C=C/C=C\C=C/CC)OC(=O)CCCCCCCC\C=C/C=C\CCCCC
InChI: InChI=1S/C55H94O6/c1-4-7-10-13-16-19-22-25-27-30-33-36-39-42-45-48-54(57)60-51-52(50-59-53(56)47-44-41-38-35-32-29-24-21-18-15-12-9-6-3)61-55(58)49-46-43-40-37-34-31-28-26-23-20-17-14-11-8-5-2/h7,10,13,16-17,19-20,22-23,26,29,32,52H,4-6,8-9,11-12,14-15,18,21,24-25,27-28,30-31,33-51H2,1-3H3/b10-7-,16-13-,20-17-,22-19-,26-23-,32-29-
Instrument: AB Sciex TripleTOF 5600+ system (Q-TOF) equipped with a DuoSpray ion source
Instrument type: LC-ESI-QTOF
Ms type: MS2
Ion mode: POSITIVE
Collision energy: 45V
Column name: Acquity UPLC Peptide BEH C18 column (50*2.1 mm; 1.7 um; 130A)(Waters Co.,Milford, MA, USA)
Retention time: 13.8431
Precursor type: [M+NH4]+
Precursor m/z: 868.7411
Intensity: 2204
m/z	relative intensity
81.07	56
83.087	19
93.07	25
95.085	34
109.103	23
119.085	14
121.102	36
123.118	14
131.085	16
133.102	23
135.115	23
147.12	19
149.131	21
161.136	27
163.149	21
173.136	27
175.148	23
203.181	15
217.202	14
235.21	23
237.225	34
243.211	25
245.227	16
259.207	19
261.222	112
263.236	49
301.238	9
309.233	7
311.25	32
311.266	28
313.274	15
317.25	23
319.265	25
335.271	17
337.271	54
337.287	40
339.286	21
357.337	7
413.389	6
497.439	19
521.482	17
522.473	80
523.46	58
523.479	18
533.465	19
541.439	10
547.476	20
569.459	62
571.457	162
571.483	999
573.489	422
573.514	278
575.488	17
575.52	21
595.458	12
595.48	49
597.495	761
597.55	12
599.486	74
599.512	364
601.526	14
601.566	10
623.497	21
623.527	10
625.523	10
727.601	6
753.627	7
797.665	30
797.687	19
830.735	31
830.782	8
833.686	14
833.72	23
833.752	8
851.666	10
851.711	130
851.747	62
868.618	6
868.691	12
868.73	153
868.762	73
868.779	54
868.816	14
869.759	7
