Mass spectrum: TG 54:6; LC-ESI-QTOF; MS2
Name: TG 54:6
Class:  TAG
Formula: C57H98O6
Exact mass: 879.405
SMILES: CCCCCCCCCCCCCCCC(=O)OCC(COC(=O)CCC\C=C/C\C=C/C\C=C/C\C=C/CCCCC)OC(=O)CCCCCCCC\C=C/C=C\CCCCC
InChI: InChI=1S/C57H98O6/c1-4-7-10-13-16-19-22-25-27-28-30-32-35-38-41-44-47-50-56(59)62-53-54(52-61-55(58)49-46-43-40-37-34-31-24-21-18-15-12-9-6-3)63-57(60)51-48-45-42-39-36-33-29-26-23-20-17-14-11-8-5-2/h16-17,19-20,23,25-27,30,32,38,41,54H,4-15,18,21-22,24,28-29,31,33-37,39-40,42-53H2,1-3H3/b19-16-,20-17-,26-23-,27-25-,32-30-,41-38-
Instrument: AB Sciex TripleTOF 5600+ system (Q-TOF) equipped with a DuoSpray ion source
Instrument type: LC-ESI-QTOF
Ms type: MS2
Ion mode: POSITIVE
Collision energy: 45V
Column name: Acquity UPLC Peptide BEH C18 column (50*2.1 mm; 1.7 um; 130A)(Waters Co.,Milford, MA, USA)
Retention time: 14.22194
Precursor type: [M+NH4]+
Precursor m/z: 896.7687
Intensity: 8812
m/z	relative intensity
79.052	13
81.07	23
83.086	9
85.102	9
91.054	20
93.07	10
95.085	26
97.103	9
105.07	13
109.1	15
119.085	17
123.115	9
133.099	11
135.117	10
147.115	9
161.129	14
171.116	17
175.145	11
175.158	9
177.162	9
185.135	9
189.166	12
199.149	9
201.161	12
203.178	89
239.24	25
245.226	18
259.241	8
263.232	16
263.246	15
269.225	79
271.244	3
285.219	5
287.224	21
287.237	84
297.263	2
311.259	3
313.274	120
319.26	7
319.282	2
335.257	3
337.254	13
337.274	76
339.293	4
343.265	5
359.263	2
361.282	3
367.277	6
391.285	5
531.452	3
549.449	5
549.475	5
573.499	7
573.678	3
573.727	5
575.504	999
575.68	4
577.524	12
595.475	6
597.475	13
597.502	13
597.598	2
599.5	189
601.505	6
601.529	3
617.521	2
621.484	5
621.542	4
623.503	188
623.522	76
625.502	5
625.526	10
641.508	2
727.565	1
739.566	1
753.594	1
767.61	1
769.674	1
781.674	1
795.687	1
814.704	2
836.606	1
861.709	3
861.742	5
861.785	2
877.507	3
877.694	30
877.729	102
877.782	5
879.682	2
879.734	63
879.766	14
879.786	8
879.808	4
896.707	6
896.731	16
896.771	192
896.82	7
