Mass spectrum: TG 54:7; LC-ESI-QTOF; MS2
Name: TG 54:7
Class:  TAG
Formula: C57H96O6
Exact mass: 877.389
SMILES: CCCCCCCCCCCCCCCC(=O)OCC(COC(=O)CC\C=C/C\C=C/C\C=C/C\C=C/C\C=C/C\C=C/CC)OC(=O)CCCCC\C=C/CCCCCCCC
InChI: InChI=1S/C57H96O6/c1-4-7-10-13-16-19-22-25-26-27-28-29-30-33-35-38-41-44-47-50-56(59)62-53-54(63-57(60)51-48-45-42-39-36-32-24-21-18-15-12-9-6-3)52-61-55(58)49-46-43-40-37-34-31-23-20-17-14-11-8-5-2/h7,10,16,19,25-26,28-29,32-33,35-36,41,44,54H,4-6,8-9,11-15,17-18,20-24,27,30-31,34,37-40,42-43,45-53H2,1-3H3/b10-7-,19-16-,26-25-,29-28-,35-33-,36-32-,44-41-
Instrument: AB Sciex TripleTOF 5600+ system (Q-TOF) equipped with a DuoSpray ion source
Instrument type: LC-ESI-QTOF
Ms type: MS2
Ion mode: POSITIVE
Collision energy: 45V
Column name: Acquity UPLC Peptide BEH C18 column (50*2.1 mm; 1.7 um; 130A)(Waters Co.,Milford, MA, USA)
Retention time: 14.01901
Precursor type: [M+NH4]+
Precursor m/z: 894.7509
Intensity: 7834
m/z	relative intensity
71.085	6
77.037	7
79.055	12
81.069	32
83.084	10
85.104	6
91.053	15
93.069	14
95.083	19
95.091	10
97.099	6
105.069	11
107.086	9
109.102	17
117.069	14
119.084	12
121.1	11
123.118	19
131.084	17
133.104	12
135.118	9
137.131	5
145.1	8
147.114	6
149.131	6
157.099	7
159.109	7
159.118	16
161.13	16
163.146	8
169.105	8
171.12	15
173.126	15
173.137	12
175.147	14
183.114	7
185.131	22
187.149	19
189.127	6
189.166	7
197.132	11
199.148	17
201.127	7
201.163	86
211.144	13
225.17	7
239.181	7
239.239	23
241.198	7
245.227	9
257.226	5
263.239	31
267.211	85
283.21	5
285.223	69
287.241	1
311.239	1
311.268	3
313.276	120
319.265	7
335.254	4
337.273	83
339.288	4
341.255	7
357.248	1
359.265	3
367.286	6
379.305	1
391.283	3
431.334	1
459.355	1
505.442	1
523.454	3
529.436	4
547.454	8
549.496	6
573.482	7
573.514	1
573.694	4
575.506	999
577.524	8
593.46	2
595.464	6
595.483	3
597.485	158
597.507	45
597.682	1
599.506	4
601.512	1
613.485	2
615.49	3
619.508	2
621.491	249
623.491	3
623.516	3
713.578	0
723.611	0
725.605	0
765.606	0
767.641	1
779.65	0
789.647	0
793.659	1
795.65	1
807.674	2
812.684	3
829.681	1
847.679	0
849.734	0
859.726	12
860.716	0
875.672	6
875.697	14
875.72	33
875.749	7
877.729	68
877.769	14
891.883	1
894.661	2
894.76	199
