Mass spectrum: TG 50:5; LC-ESI-QTOF; MS2
Name: TG 50:5
Class:  TAG
Formula: C53H92O6
Exact mass: 825.313
SMILES: CCCCCC\C=C/CCCCCCCCCC(=O)OC(COC(=O)CCCCCCCCC\C=C/C=C\C=C/CC)COC(=O)CCCCCCC\C=C/CCCC
InChI: InChI=1S/C53H92O6/c1-4-7-10-13-16-19-22-24-26-28-31-34-37-40-43-46-52(55)58-49-50(48-57-51(54)45-42-39-36-33-30-21-18-15-12-9-6-3)59-53(56)47-44-41-38-35-32-29-27-25-23-20-17-14-11-8-5-2/h7,10,13,15-16,18-20,22-23,50H,4-6,8-9,11-12,14,17,21,24-49H2,1-3H3/b10-7-,16-13-,18-15-,22-19-,23-20-
Instrument: AB Sciex TripleTOF 5600+ system (Q-TOF) equipped with a DuoSpray ion source
Instrument type: LC-ESI-QTOF
Ms type: MS2
Ion mode: POSITIVE
Collision energy: 45V
Column name: Acquity UPLC Peptide BEH C18 column (50*2.1 mm; 1.7 um; 130A)(Waters Co.,Milford, MA, USA)
Retention time: 13.79438
Precursor type: [M+NH4]+
Precursor m/z: 842.7243
Intensity: 1380
m/z	relative intensity
81.072	154
83.086	84
93.068	77
95.088	154
107.087	69
109.104	135
111.127	76
119.088	55
121.108	77
123.12	83
133.105	48
135.117	91
137.132	50
149.133	76
161.144	55
173.136	84
175.15	62
177.164	50
186.994	70
209.202	63
211.199	55
211.222	56
219.216	55
237.225	83
243.225	106
261.217	84
261.223	77
261.228	99
261.234	177
263.237	134
263.262	48
269.021	48
283.228	62
285.242	34
299.24	34
311.263	27
311.268	27
311.284	62
317.237	76
317.269	91
319.264	62
319.295	27
335.261	71
335.293	34
337.278	126
337.295	27
337.3	42
339.289	84
350.998	27
475.389	29
497.473	69
519.486	62
543.416	63
543.438	92
543.455	70
543.461	70
543.471	70
545.435	684
545.45	377
545.458	532
545.466	541
545.473	455
545.482	857
545.492	376
545.499	340
547.445	168
547.468	928
547.478	567
547.484	486
547.491	474
547.498	416
547.513	999
571.455	329
571.464	185
571.471	255
571.485	713
571.514	506
573.474	91
573.487	63
573.495	106
573.518	191
597.471	325
597.495	582
597.526	556
597.556	98
599.493	269
599.504	127
599.511	169
599.518	148
599.525	134
599.532	127
599.539	155
599.551	254
601.513	85
601.548	105
601.569	84
807.738	84
825.661	42
825.669	63
825.701	154
825.726	85
825.739	85
825.747	85
825.755	77
825.763	63
825.771	49
825.791	35
842.62	62
842.666	42
842.678	49
842.686	49
842.695	63
842.726	296
842.755	120
842.768	70
842.776	49
842.789	63
842.797	63
842.805	34
842.821	106
