Mass spectrum: PG 38:4; LC-ESI-QTOF; MS2
Name: PG 38:4
Class:  PG
Formula: C44H79O10P
Exact mass: 799.082
SMILES: CCCCCCCCCCCCCCCCCC(=O)OCC(COP(O)(=O)OCC(O)CO)OC(=O)CCCCCC\C=C/C\C=C/C\C=C/C\C=C/CC
InChI: InChI=1S/C44H79O10P/c1-3-5-7-9-11-13-15-17-19-20-22-24-26-28-30-32-34-36-44(48)54-42(40-53-55(49,50)52-38-41(46)37-45)39-51-43(47)35-33-31-29-27-25-23-21-18-16-14-12-10-8-6-4-2/h5,7,11,13,17,19,22,24,41-42,45-46H,3-4,6,8-10,12,14-16,18,20-21,23,25-40H2,1-2H3,(H,49,50)/b7-5-,13-11-,19-17-,24-22-
Instrument: AB Sciex TripleTOF 5600+ system (Q-TOF) equipped with a DuoSpray ion source
Instrument type: LC-ESI-QTOF
Ms type: MS2
Ion mode: POSITIVE
Collision energy: 45V
Column name: Acquity UPLC Peptide BEH C18 column (50*2.1 mm; 1.7 um; 130A)(Waters Co.,Milford, MA, USA)
Retention time: 8.779539
Precursor type: [M+NH4]+
Precursor m/z: 816.5749
Intensity: 3111
m/z	relative intensity
79.053	7
81.069	12
83.084	5
85.102	5
91.048	5
91.055	8
93.069	4
95.084	11
105.065	5
109.098	6
117.068	4
119.083	5
133.103	5
171.116	5
184.072	86
185.133	5
186.076	7
187.146	4
189.16	5
203.177	29
267.266	12
269.216	5
269.23	16
285.276	3
287.234	10
299.053	2
339.29	5
341.305	296
343.253	6
343.312	1
361.251	3
361.271	20
395.309	14
395.326	3
463.377	2
477.282	2
570.459	2
575.501	2
604.809	1
625.548	6
627.276	2
627.531	999
627.552	170
628.114	2
628.539	7
629.54	20
631.534	6
631.563	11
631.596	3
699.466	1
753.508	5
756.508	1
758.471	1
758.532	13
758.564	31
758.611	5
763.537	1
769.457	1
816.493	4
816.607	3
816.664	2
