Mass spectrum: TG 58:4; LC-ESI-QTOF; MS2
Name: TG 58:4
Class:  TAG
Formula: C61H110O6
Exact mass: 939.545
SMILES: CCCCCC\C=C/CCCCCCCCCC(=O)OCC(COC(=O)CCCCCCCCCCCC\C=C/C=C\CCCCC)OC(=O)CCCCCCCCC\C=C/CCCCCC
InChI: InChI=1S/C61H110O6/c1-4-7-10-13-16-19-22-25-28-29-30-31-34-36-39-42-45-48-51-54-60(63)66-57-58(67-61(64)55-52-49-46-43-40-37-33-27-24-21-18-15-12-9-6-3)56-65-59(62)53-50-47-44-41-38-35-32-26-23-20-17-14-11-8-5-2/h16,19-25,58H,4-15,17-18,26-57H2,1-3H3/b19-16-,23-20-,24-21-,25-22-
Instrument: AB Sciex TripleTOF 5600+ system (Q-TOF) equipped with a DuoSpray ion source
Instrument type: LC-ESI-QTOF
Ms type: MS2
Ion mode: POSITIVE
Collision energy: 45V
Column name: Acquity UPLC Peptide BEH C18 column (50*2.1 mm; 1.7 um; 130A)(Waters Co.,Milford, MA, USA)
Retention time: 15.28576
Precursor type: [M+NH4]+
Precursor m/z: 956.8574
Intensity: 7365
m/z	relative intensity
79.055	5
81.069	20
83.086	10
93.07	9
95.085	28
97.103	11
107.086	5
109.101	17
111.116	6
121.099	6
121.107	4
123.116	9
133.101	4
135.119	6
137.131	5
149.132	6
161.133	4
163.147	5
165.163	4
175.15	8
177.164	5
189.165	5
245.228	19
247.238	5
247.249	6
263.239	47
265.254	27
275.276	8
289.255	1
291.272	6
293.285	27
303.301	4
303.317	2
317.277	2
319.259	10
319.283	4
321.317	23
337.275	12
339.292	20
342.307	2
349.309	3
365.291	1
367.312	8
367.332	9
377.343	3
393.335	1
395.334	3
395.35	10
395.365	3
555.521	4
573.484	19
573.512	4
575.485	11
575.511	23
575.531	6
577.516	4
583.533	4
597.5	4
599.506	8
601.518	638
602.518	8
603.513	23
603.539	38
605.559	7
623.504	3
625.509	12
625.526	11
627.524	6
627.589	3
629.55	885
630.557	11
631.564	114
633.578	16
633.608	4
651.531	13
651.55	3
653.539	17
653.559	20
655.547	14
655.569	18
657.526	4
657.58	889
658.561	4
658.594	11
659.598	999
660.576	3
660.604	12
671.617	2
673.583	1
673.619	1
675.587	1
679.55	6
679.594	2
683.554	1
683.58	13
683.605	20
683.626	4
685.58	5
685.601	13
685.621	20
685.652	3
686.629	1
687.641	1
701.593	1
729.607	1
853.737	1
910.797	3
921.791	5
921.824	5
921.847	11
932.873	2
935.729	4
935.801	640
935.881	8
936.78	6
936.813	6
936.837	3
939.82	91
939.858	58
939.895	6
940.872	3
956.833	66
956.859	351
956.894	91
956.963	2
957.831	4
957.891	9
