Mass spectrum: TG 56:8; LC-ESI-QTOF; MS2
Name: TG 56:8
Class:  TAG
Formula: C59H98O6
Exact mass: 903.427
SMILES: CCCCC\C=C/C\C=C/C\C=C/C\C=C/CCCC(=O)OCC(COC(=O)CCCCCCCC\C=C/C=C\CCCCC)OC(=O)CCCCCCCC\C=C/C=C\CCCCC
InChI: InChI=1S/C59H98O6/c1-4-7-10-13-16-19-22-25-28-29-32-34-37-40-43-46-49-52-58(61)64-55-56(65-59(62)53-50-47-44-41-38-35-31-27-24-21-18-15-12-9-6-3)54-63-57(60)51-48-45-42-39-36-33-30-26-23-20-17-14-11-8-5-2/h16-21,23-28,32,34,40,43,56H,4-15,22,29-31,33,35-39,41-42,44-55H2,1-3H3/b19-16-,20-17-,21-18-,26-23-,27-24-,28-25-,34-32-,43-40-
Instrument: AB Sciex TripleTOF 5600+ system (Q-TOF) equipped with a DuoSpray ion source
Instrument type: LC-ESI-QTOF
Ms type: MS2
Ion mode: POSITIVE
Collision energy: 45V
Column name: Acquity UPLC Peptide BEH C18 column (50*2.1 mm; 1.7 um; 130A)(Waters Co.,Milford, MA, USA)
Retention time: 14.04731
Precursor type: [M+NH4]+
Precursor m/z: 920.7692
Intensity: 19696
m/z	relative intensity
79.054	10
81.069	24
83.085	5
91.054	14
93.07	11
95.085	25
97.101	4
105.07	11
107.085	10
109.101	11
117.07	6
119.085	15
121.101	17
123.117	12
131.085	9
133.099	14
135.12	4
137.13	4
143.084	4
145.102	4
147.115	9
149.134	7
151.147	3
157.1	6
159.118	6
161.132	13
163.148	9
171.116	16
173.13	7
175.149	19
177.164	9
185.131	15
187.148	8
189.163	15
191.178	6
199.146	7
199.156	4
201.164	17
203.178	81
205.195	3
213.161	7
215.184	3
227.177	4
241.196	3
243.212	8
245.225	14
259.232	6
261.222	10
263.234	40
265.247	4
267.205	4
269.226	77
271.233	2
271.246	2
285.218	8
285.231	4
287.234	91
289.254	2
295.247	1
313.257	2
317.249	2
319.258	8
319.278	2
335.258	9
335.272	3
337.273	153
339.286	15
339.301	5
343.254	3
361.262	2
361.289	1
391.284	5
459.349	1
475.382	1
485.372	2
507.445	1
525.394	1
525.462	2
531.452	3
547.471	2
549.451	5
549.468	6
549.493	2
555.429	1
567.473	2
573.477	9
573.496	4
575.485	2
584.471	2
595.459	2
597.475	5
597.499	5
597.602	2
599.501	999
600.488	4
600.516	2
601.503	16
601.527	12
605.515	2
615.497	1
617.497	4
621.474	19
621.498	17
623.499	368
624.504	2
625.513	26
627.537	1
637.5	1
639.502	2
641.488	1
641.518	3
647.494	1
649.527	2
675.533	1
723.551	0
733.61	0
737.562	1
739.591	1
751.583	0
753.623	1
765.591	0
777.601	1
779.603	1
779.657	1
791.599	1
791.684	1
805.657	1
819.634	2
819.693	1
837.687	1
838.693	21
875.663	2
875.689	6
875.715	10
875.751	2
885.713	5
885.741	7
903.742	132
911.666	2
911.686	4
911.714	3
920.663	2
920.691	4
920.765	270
921.755	2
921.781	2
