Mass spectrum: TG 60:12; LC-ESI-QTOF; MS2
Name: TG 60:12
Class:  TAG
Formula: C63H98O6
Exact mass: 951.471
SMILES: CCCCC\C=C/C=C\CCCCCCCCC(=O)OCC(COC(=O)CCCCC\C=C/C\C=C/C\C=C/C\C=C/C\C=C/CC)OC(=O)CCC\C=C/C\C=C/C\C=C/C\C=C/C\C=C/CC
InChI: InChI=1S/C63H98O6/c1-4-7-10-13-16-19-22-25-28-30-31-33-35-38-41-44-47-50-53-56-62(65)68-59-60(58-67-61(64)55-52-49-46-43-40-37-34-27-24-21-18-15-12-9-6-3)69-63(66)57-54-51-48-45-42-39-36-32-29-26-23-20-17-14-11-8-5-2/h7-8,10-11,16-21,24-29,31,33,36,38-39,41,45,48,60H,4-6,9,12-15,22-23,30,32,34-35,37,40,42-44,46-47,49-59H2,1-3H3/b10-7-,11-8-,19-16-,20-17-,21-18-,27-24-,28-25-,29-26-,33-31-,39-36-,41-38-,48-45-
Instrument: AB Sciex TripleTOF 5600+ system (Q-TOF) equipped with a DuoSpray ion source
Instrument type: LC-ESI-QTOF
Ms type: MS2
Ion mode: POSITIVE
Collision energy: 45V
Column name: Acquity UPLC Peptide BEH C18 column (50*2.1 mm; 1.7 um; 130A)(Waters Co.,Milford, MA, USA)
Retention time: 13.91872
Precursor type: [M+NH4]+
Precursor m/z: 968.7736
Intensity: 2401
m/z	relative intensity
79.053	35
81.067	32
91.054	52
93.069	27
95.083	46
105.07	32
109.101	41
117.07	35
119.084	52
121.1	35
131.084	38
133.1	65
135.116	26
143.083	30
145.099	32
147.116	32
157.1	41
159.114	38
161.132	38
169.1	24
171.117	91
173.135	47
175.143	43
177.167	27
185.129	52
187.149	52
189.164	54
191.181	27
199.149	55
201.162	49
203.178	284
211.144	24
213.162	32
215.18	20
227.174	26
259.24	21
263.231	24
267.204	24
269.226	226
285.22	24
287.238	138
293.222	49
303.226	11
309.213	12
311.233	41
311.248	27
313.25	12
319.257	17
335.258	16
337.274	334
338.264	21
339.284	16
359.253	11
361.271	204
363.296	14
367.257	11
385.271	30
385.293	13
391.285	21
573.47	24
599.498	27
599.528	24
600.502	55
600.535	24
621.496	33
623.5	775
623.536	159
624.49	83
624.514	77
647.488	496
647.506	999
648.493	52
648.522	27
648.544	13
649.522	54
650.526	18
671.485	93
671.508	113
671.523	30
671.531	16
688.502	8
689.515	8
731.578	6
839.635	8
886.678	27
928.731	43
945.721	24
945.745	30
945.784	61
945.824	24
951.697	24
951.745	105
951.779	27
951.807	13
968.754	445
968.786	345
968.809	124
969.743	24
969.784	19
