Mass spectrum: TG 51:4; LC-ESI-QTOF; MS2
Name: TG 51:4
Class:  TAG
Formula: C54H96O6
Exact mass: 841.356
SMILES: CCCCCCCCCCCCCCC(=O)OCC(COC(=O)CCCCCCCC\C=C/C=C\CCCCC)OC(=O)CCCCCCCC\C=C/C=C\CCCCC
InChI: InChI=1S/C54H96O6/c1-4-7-10-13-16-19-22-25-27-29-32-35-38-41-44-47-53(56)59-50-51(49-58-52(55)46-43-40-37-34-31-24-21-18-15-12-9-6-3)60-54(57)48-45-42-39-36-33-30-28-26-23-20-17-14-11-8-5-2/h16-17,19-20,22-23,25-26,51H,4-15,18,21,24,27-50H2,1-3H3/b19-16-,20-17-,25-22-,26-23-
Instrument: AB Sciex TripleTOF 5600+ system (Q-TOF) equipped with a DuoSpray ion source
Instrument type: LC-ESI-QTOF
Ms type: MS2
Ion mode: POSITIVE
Collision energy: 45V
Column name: Acquity UPLC Peptide BEH C18 column (50*2.1 mm; 1.7 um; 130A)(Waters Co.,Milford, MA, USA)
Retention time: 14.10153
Precursor type: [M+NH4]+
Precursor m/z: 858.7517
Intensity: 7248
m/z	relative intensity
79.054	10
81.07	30
83.085	7
85.102	7
93.069	6
95.086	28
97.101	7
109.1	20
119.083	6
121.103	10
123.116	15
133.101	8
135.116	12
137.132	12
149.133	5
161.131	6
163.15	8
175.151	13
177.165	6
221.192	5
225.217	12
225.229	6
239.232	5
243.208	5
245.224	11
245.236	6
249.22	5
251.237	5
261.222	19
263.237	46
263.25	7
265.251	5
299.242	5
299.259	8
299.272	3
301.244	2
303.269	1
311.259	6
313.271	3
317.249	10
319.264	10
325.283	2
335.255	2
337.256	3
337.277	24
339.296	7
341.313	5
390.993	1
465.372	2
521.463	4
525.469	4
535.478	4
543.47	7
545.458	5
547.465	6
549.479	13
557.437	4
557.468	5
559.445	17
559.468	54
559.491	21
559.742	3
561.487	999
562.484	6
563.5	104
571.473	15
573.485	107
575.501	104
575.546	3
577.503	3
585.482	94
585.503	28
587.492	79
587.52	25
589.516	12
597.614	3
599.503	412
600.498	4
601.497	17
601.521	50
603.526	19
603.545	11
613.522	10
617.519	5
729.599	2
743.628	2
776.678	2
799.67	2
800.682	3
823.687	2
823.711	10
823.748	2
841.728	80
841.785	5
842.726	3
858.733	55
858.758	77
858.783	34
859.768	4
