Mass spectrum: TG 54:8; LC-ESI-QTOF; MS2
Name: TG 54:8
Class:  TAG
Formula: C57H94O6
Exact mass: 875.3729999999999
SMILES: CCCCCCCC\C=C/CCCCCC(=O)OCC(COC(=O)CC\C=C/C\C=C/C\C=C/C\C=C/C\C=C/C\C=C/CC)OC(=O)CCCCC\C=C/CCCCCCCC
InChI: InChI=1S/C57H94O6/c1-4-7-10-13-16-19-22-25-26-27-28-29-30-33-35-38-41-44-47-50-56(59)62-53-54(63-57(60)51-48-45-42-39-36-32-24-21-18-15-12-9-6-3)52-61-55(58)49-46-43-40-37-34-31-23-20-17-14-11-8-5-2/h7,10,16,19,25-26,28-29,31-36,41,44,54H,4-6,8-9,11-15,17-18,20-24,27,30,37-40,42-43,45-53H2,1-3H3/b10-7-,19-16-,26-25-,29-28-,34-31-,35-33-,36-32-,44-41-
Instrument: AB Sciex TripleTOF 5600+ system (Q-TOF) equipped with a DuoSpray ion source
Instrument type: LC-ESI-QTOF
Ms type: MS2
Ion mode: POSITIVE
Collision energy: 45V
Column name: Acquity UPLC Peptide BEH C18 column (50*2.1 mm; 1.7 um; 130A)(Waters Co.,Milford, MA, USA)
Retention time: 13.8648
Precursor type: [M+NH4]+
Precursor m/z: 892.74
Intensity: 3965
m/z	relative intensity
81.069	45
91.054	35
95.084	48
105.07	28
121.1	35
135.113	41
159.116	35
163.149	28
169.1	28
173.131	28
175.147	35
187.148	31
199.149	35
201.16	61
201.172	45
225.164	28
237.222	67
267.209	97
285.212	48
285.226	45
285.251	19
293.229	51
309.23	12
311.231	45
311.258	142
313.269	25
335.252	23
337.27	87
337.289	19
339.091	10
341.237	10
357.237	12
365.274	15
391.282	13
459.36	12
521.448	168
521.468	71
521.492	19
547.472	999
548.464	19
571.476	23
573.463	324
573.492	790
575.506	19
593.428	20
593.492	30
595.454	68
595.478	130
597.496	51
619.47	35
621.484	314
621.502	74
621.512	81
647.5	48
647.521	28
649.518	20
685.451	6
746.872	6
788.61	7
806.633	7
845.662	25
845.703	12
847.686	29
849.706	19
857.693	25
857.752	7
866.7	25
866.742	32
871.68	6
875.69	71
875.719	54
875.753	44
892.658	12
892.716	185
892.76	224
893.716	9
