Mass spectrum: TG 54:5; LC-ESI-QTOF; MS2
Name: TG 54:5
Class:  TAG
Formula: C57H100O6
Exact mass: 881.4209999999999
SMILES: CCCCCCCCCCCCCCCC(=O)OCC(COC(=O)CCCCC\C=C/C\C=C/C\C=C/C\C=C/C\C=C/CC)OC(=O)CCCCCCCCCCCCCCC
InChI: InChI=1S/C57H100O6/c1-4-7-10-13-16-19-22-25-26-27-28-29-30-33-35-38-41-44-47-50-56(59)62-53-54(63-57(60)51-48-45-42-39-36-32-24-21-18-15-12-9-6-3)52-61-55(58)49-46-43-40-37-34-31-23-20-17-14-11-8-5-2/h7,10,16,19,25-26,28-29,33,35,54H,4-6,8-9,11-15,17-18,20-24,27,30-32,34,36-53H2,1-3H3/b10-7-,19-16-,26-25-,29-28-,35-33-
Instrument: AB Sciex TripleTOF 5600+ system (Q-TOF) equipped with a DuoSpray ion source
Instrument type: LC-ESI-QTOF
Ms type: MS2
Ion mode: POSITIVE
Collision energy: 45V
Column name: Acquity UPLC Peptide BEH C18 column (50*2.1 mm; 1.7 um; 130A)(Waters Co.,Milford, MA, USA)
Retention time: 14.46771
Precursor type: [M+NH4]+
Precursor m/z: 898.7853
Intensity: 23661
m/z	relative intensity
71.085	5
77.037	1
79.053	5
81.068	16
83.084	8
85.063	2
85.101	6
91.054	13
93.069	6
95.085	19
97.063	2
97.101	5
105.068	9
107.084	4
109.1	12
111.116	3
117.068	5
119.085	12
121.101	12
123.115	7
125.095	2
125.134	2
129.068	2
131.086	10
133.1	13
135.081	1
135.117	9
137.132	3
143.082	2
143.09	1
145.102	4
147.117	7
149.096	2
149.133	4
151.148	4
157.1	6
159.117	4
161.094	1
161.131	7
163.147	5
165.164	4
171.116	14
173.13	8
175.109	3
175.149	12
177.162	6
185.132	14
187.149	11
189.129	4
189.164	13
191.179	6
199.149	8
201.163	9
203.146	4
203.179	92
205.196	1
213.163	6
215.18	2
221.231	1
227.178	5
239.237	24
241.195	5
243.211	5
245.225	6
247.241	9
257.247	1
259.205	4
259.24	9
259.253	4
265.252	37
267.211	1
269.226	89
271.213	0
271.243	1
279.213	0
282.275	0
285.223	2
286.353	0
287.237	120
288.24	1
288.254	0
289.255	1
295.268	0
297.272	1
311.234	0
311.256	1
311.271	0
312.299	0
313.239	0
313.274	96
314.273	0
315.262	0
321.276	1
323.298	0
325.255	0
337.278	1
339.29	117
340.277	0
340.296	0
341.269	0
341.311	1
343.248	0
343.268	4
359.257	1
361.259	0
361.274	1
367.284	4
367.3	0
393.294	3
393.309	3
435.342	0
435.366	0
437.362	0
439.387	0
461.368	1
467.418	0
473.364	0
475.392	0
477.399	0
487.369	0
489.396	0
499.378	0
501.394	0
503.479	0
507.463	1
513.392	0
515.434	0
517.428	0
523.473	0
525.458	1
525.492	0
527.409	0
531.406	0
533.466	1
533.486	0
549.489	2
551.455	0
551.487	3
551.504	6
569.497	0
575.495	4
575.513	4
575.538	0
575.724	2
577.271	0
577.403	0
577.519	999
578.519	32
597.474	1
597.501	1
597.643	1
599.503	199
600.505	6
600.537	1
601.532	3
603.527	1
603.553	0
605.551	0
607.503	0
615.502	1
617.487	0
617.519	2
623.537	0
623.582	0
624.557	0
625.519	278
626.508	3
626.528	9
626.564	1
627.539	2
641.513	0
643.517	0
643.568	0
725.607	0
757.638	0
783.656	0
797.686	0
807.735	0
863.722	2
863.75	3
863.773	3
877.739	1
881.734	12
881.761	58
881.812	4
882.738	0
882.771	2
895.967	0
898.703	1
898.786	175
898.886	0
899.75	0
899.778	3
899.806	3
899.836	0
