Mass spectrum: ChE 22:5; LC-ESI-QTOF; MS2
Name: ChE 22:5
Class:  CE
Formula: C49H78O2
Exact mass: 699.1610000000001
SMILES: CC\C=C/C\C=C/C\C=C/C\C=C/C\C=C/CCCCCC(=O)O[C@H]1CC[C@]2(C)[C@H]3CC[C@]4(C)[C@H](CC[C@H]4[C@@H]3CC=C2C1)[C@H](C)CCCC(C)C
InChI: InChI=1S/C49H78O2/c1-7-8-9-10-11-12-13-14-15-16-17-18-19-20-21-22-23-24-25-29-47(50)51-42-34-36-48(5)41(38-42)30-31-43-45-33-32-44(40(4)28-26-27-39(2)3)49(45,6)37-35-46(43)48/h8-9,11-12,14-15,17-18,20-21,30,39-40,42-46H,7,10,13,16,19,22-29,31-38H2,1-6H3/b9-8-,12-11-,15-14-,18-17-,21-20-/t40-,42+,43+,44-,45+,46+,48+,49-/m1/s1
Instrument: AB Sciex TripleTOF 5600+ system (Q-TOF) equipped with a DuoSpray ion source
Instrument type: LC-ESI-QTOF
Ms type: MS2
Ion mode: POSITIVE
Collision energy: 45V
Column name: Acquity UPLC Peptide BEH C18 column (50*2.1 mm; 1.7 um; 130A)(Waters Co.,Milford, MA, USA)
Retention time: 14.45733
Precursor type: [M+NH4]+
Precursor m/z: 716.6333
Intensity: 4770
m/z	relative intensity
81.069	11
95.083	16
97.099	7
105.07	12
107.085	11
109.1	20
111.116	11
119.084	7
121.1	8
123.114	9
133.1	11
135.115	33
147.114	40
149.13	20
159.118	13
161.13	54
161.14	18
163.148	12
165.158	8
173.133	9
175.147	60
179.182	16
187.151	9
189.163	28
193.192	8
201.164	38
203.18	34
205.195	17
207.212	7
215.177	44
215.192	13
217.194	13
219.211	25
229.196	31
231.207	7
233.225	24
233.238	8
243.209	39
243.223	8
245.222	17
247.241	28
257.226	27
259.241	44
261.259	16
271.242	2
273.256	31
273.275	3
275.269	4
285.261	6
287.271	45
299.272	11
313.29	9
368.204	4
369.351	999
371.37	3
397.381	8
716.575	1
