Mass spectrum: TG 54:0; LC-ESI-QTOF; MS2
Name: TG 54:0
Class:  TAG
Formula: C57H110O6
Exact mass: 891.501
SMILES: CCCCCCCCCCCCCCCCCC(=O)OCC(COC(=O)CCCCCCCCCCCCCCCCC)OC(=O)CCCCCCCCCCCCCCCCC
InChI: InChI=1S/C57H110O6/c1-4-7-10-13-16-19-22-25-28-31-34-37-40-43-46-49-55(58)61-52-54(63-57(60)51-48-45-42-39-36-33-30-27-24-21-18-15-12-9-6-3)53-62-56(59)50-47-44-41-38-35-32-29-26-23-20-17-14-11-8-5-2/h54H,4-53H2,1-3H3
Instrument: AB Sciex TripleTOF 5600+ system (Q-TOF) equipped with a DuoSpray ion source
Instrument type: LC-ESI-QTOF
Ms type: MS2
Ion mode: POSITIVE
Collision energy: 45V
Column name: Acquity UPLC Peptide BEH C18 column (50*2.1 mm; 1.7 um; 130A)(Waters Co.,Milford, MA, USA)
Retention time: 16.01419
Precursor type: [M+NH4]+
Precursor m/z: 908.8605
Intensity: 426
m/z	relative intensity
83.085	68
186.99	89
267.266	89
268.999	207
390.996	59
418.978	59
551.498	59
579.536	326
605.675	59
607.551	513
607.56	637
607.573	999
618.94	59
635.593	267
908.726	89
908.863	261
