Mass spectrum: TG 53:3; LC-ESI-QTOF; MS2
Name: TG 53:3
Class:  TAG
Formula: C56H102O6
Exact mass: 871.426
SMILES: CCCCCCCCCCCCCCCCC(=O)OCC(COC(=O)CCCCCCCC\C=C/C=C\CCCCC)OC(=O)CCCCCCCCC\C=C/CCCCCC
InChI: InChI=1S/C56H102O6/c1-4-7-10-13-16-19-22-25-28-31-34-37-40-43-46-49-55(58)61-52-53(51-60-54(57)48-45-42-39-36-33-30-27-24-21-18-15-12-9-6-3)62-56(59)50-47-44-41-38-35-32-29-26-23-20-17-14-11-8-5-2/h16,19-20,22-23,25,53H,4-15,17-18,21,24,26-52H2,1-3H3/b19-16-,23-20-,25-22-
Instrument: AB Sciex TripleTOF 5600+ system (Q-TOF) equipped with a DuoSpray ion source
Instrument type: LC-ESI-QTOF
Ms type: MS2
Ion mode: POSITIVE
Collision energy: 45V
Column name: Acquity UPLC Peptide BEH C18 column (50*2.1 mm; 1.7 um; 130A)(Waters Co.,Milford, MA, USA)
Retention time: 14.67168
Precursor type: [M+NH4]+
Precursor m/z: 888.7975
Intensity: 21751
m/z	relative intensity
71.086	8
79.055	7
81.069	37
83.086	20
85.101	7
93.069	8
95.084	34
97.102	12
107.084	9
109.102	18
111.119	4
119.085	4
121.102	15
123.118	16
133.099	3
135.117	9
137.134	9
149.132	4
161.131	6
163.146	4
163.154	3
165.166	6
175.147	10
177.164	4
189.164	5
191.179	4
233.228	4
235.246	4
239.235	8
239.245	4
245.226	21
247.245	10
251.235	11
253.241	3
253.255	10
263.237	72
265.254	39
271.256	1
277.259	1
279.264	12
279.281	3
293.286	1
313.273	10
319.261	13
319.282	1
321.279	2
323.281	1
325.274	6
327.291	20
335.294	1
337.262	6
337.28	11
337.302	1
339.29	21
341.3	4
353.301	6
355.322	1
367.311	1
545.496	2
547.483	3
549.474	3
551.509	2
559.5	2
561.465	6
561.485	18
561.503	13
563.496	10
563.52	8
565.518	68
573.469	4
573.488	25
573.515	5
575.503	411
576.507	5
577.512	37
577.535	13
587.501	106
587.684	2
589.519	999
590.503	3
590.53	7
591.533	927
592.516	3
592.539	12
599.62	3
601.517	751
602.502	2
602.532	5
603.534	247
604.551	3
605.548	9
615.533	396
615.598	2
616.536	4
617.543	43
617.57	15
629.543	15
629.568	9
629.58	2
631.567	2
671.597	0
677.587	0
703.589	0
717.612	0
731.611	0
759.643	1
773.678	1
827.747	0
829.697	4
829.729	3
830.714	1
845.755	0
853.712	1
853.762	9
856.725	0
862.762	3
862.803	2
870.876	0
871.743	14
871.778	60
872.791	1
886.011	1
888.71	1
888.771	52
888.802	200
889.758	0
889.787	2
889.819	2
