Mass spectrum: TG 51:1; LC-ESI-QTOF; MS2
Name: TG 51:1
Class:  TAG
Formula: C54H102O6
Exact mass: 847.404
SMILES: CCCCCCCCCCCCCCCC(=O)OCC(COC(=O)CCCCCCC\C=C/CCCCCCCCC)OC(=O)CCCCCCCCCCCCCCC
InChI: InChI=1S/C54H102O6/c1-4-7-10-13-16-19-22-25-26-27-30-32-35-38-41-44-47-53(56)59-50-51(60-54(57)48-45-42-39-36-33-29-24-21-18-15-12-9-6-3)49-58-52(55)46-43-40-37-34-31-28-23-20-17-14-11-8-5-2/h26-27,51H,4-25,28-50H2,1-3H3/b27-26-
Instrument: AB Sciex TripleTOF 5600+ system (Q-TOF) equipped with a DuoSpray ion source
Instrument type: LC-ESI-QTOF
Ms type: MS2
Ion mode: POSITIVE
Collision energy: 45V
Column name: Acquity UPLC Peptide BEH C18 column (50*2.1 mm; 1.7 um; 130A)(Waters Co.,Milford, MA, USA)
Retention time: 14.94731
Precursor type: [M+NH4]+
Precursor m/z: 864.8035
Intensity: 1867
m/z	relative intensity
81.069	39
83.079	12
83.09	19
85.102	17
95.086	24
109.101	37
121.102	14
135.113	14
221.226	14
239.237	42
239.248	32
247.246	15
253.238	14
253.259	22
265.239	24
265.267	27
279.269	24
313.278	26
321.28	19
327.286	9
339.286	9
349.003	7
388.909	4
390.982	5
431.012	5
537.486	26
549.462	27
549.482	65
551.48	74
551.496	162
551.516	106
551.542	32
563.46	17
563.477	67
563.499	84
563.517	122
563.535	67
565.504	566
565.528	373
565.554	282
577.505	570
577.534	458
577.581	21
579.499	17
579.522	32
579.556	57
591.481	68
591.517	566
591.543	999
591.571	282
591.592	42
593.536	42
593.584	17
605.51	27
605.532	52
605.554	52
605.581	47
619.566	44
619.603	22
847.736	7
847.795	7
864.703	37
864.735	84
864.774	102
864.791	87
864.817	90
864.838	35
864.858	17
865.764	12
