Mass spectrum: TG 60:4; LC-ESI-QTOF; MS2
Name: TG 60:4
Class:  TAG
Formula: C63H114O6
Exact mass: 967.599
SMILES: CCCCCCCCCC\C=C/CCCCCCCCCC(=O)OCC(COC(=O)CCCCCCCC\C=C/C=C\CCCCC)OC(=O)CCCCCCCCC\C=C/CCCCCCCC
InChI: InChI=1S/C63H114O6/c1-4-7-10-13-16-19-22-25-28-30-31-33-35-38-41-44-47-50-53-56-62(65)68-59-60(58-67-61(64)55-52-49-46-43-40-37-34-27-24-21-18-15-12-9-6-3)69-63(66)57-54-51-48-45-42-39-36-32-29-26-23-20-17-14-11-8-5-2/h18,21,24,26-27,29-31,60H,4-17,19-20,22-23,25,28,32-59H2,1-3H3/b21-18-,27-24-,29-26-,31-30-
Instrument: AB Sciex TripleTOF 5600+ system (Q-TOF) equipped with a DuoSpray ion source
Instrument type: LC-ESI-QTOF
Ms type: MS2
Ion mode: POSITIVE
Collision energy: 45V
Column name: Acquity UPLC Peptide BEH C18 column (50*2.1 mm; 1.7 um; 130A)(Waters Co.,Milford, MA, USA)
Retention time: 15.74662
Precursor type: [M+NH4]+
Precursor m/z: 984.8896
Intensity: 894
m/z	relative intensity
95.083	23
97.102	23
109.099	28
121.1	20
135.114	14
175.146	25
245.232	18
263.24	44
265.254	43
293.268	28
319.266	14
321.317	9
331.328	14
337.269	18
349.338	54
350.996	9
405.366	23
423.38	42
575.496	39
599.506	14
601.498	182
601.512	688
601.528	299
602.525	30
603.521	33
603.539	81
603.555	19
605.549	14
629.539	318
629.586	47
633.569	14
657.574	285
657.597	48
658.58	39
659.578	12
659.6	52
675.601	14
683.584	57
683.615	24
685.577	88
685.585	148
685.592	189
685.614	999
685.636	133
686.612	42
687.577	17
687.588	74
687.614	615
687.632	477
687.644	186
687.662	54
687.67	29
688.636	23
711.628	29
867.756	33
938.797	115
938.815	38
938.823	43
938.832	58
938.84	44
938.858	77
967.83	38
967.856	115
967.874	34
984.879	246
984.896	92
984.905	101
984.914	91
984.922	28
984.931	38
984.94	33
