Mass spectrum: TG 50:4; LC-ESI-QTOF; MS2
Name: TG 50:4
Class:  TAG
Formula: C53H94O6
Exact mass: 827.329
SMILES: CCCCCCCCCCCCCC(=O)OCC(COC(=O)CCCCCCCCC\C=C/C=C\C=C/CC)OC(=O)CCCCCCCCC\C=C/CCCCCC
InChI: InChI=1S/C53H94O6/c1-4-7-10-13-16-19-22-24-26-28-31-34-37-40-43-46-52(55)58-49-50(48-57-51(54)45-42-39-36-33-30-21-18-15-12-9-6-3)59-53(56)47-44-41-38-35-32-29-27-25-23-20-17-14-11-8-5-2/h7,10,13,16,19-20,22-23,50H,4-6,8-9,11-12,14-15,17-18,21,24-49H2,1-3H3/b10-7-,16-13-,22-19-,23-20-
Instrument: AB Sciex TripleTOF 5600+ system (Q-TOF) equipped with a DuoSpray ion source
Instrument type: LC-ESI-QTOF
Ms type: MS2
Ion mode: POSITIVE
Collision energy: 45V
Column name: Acquity UPLC Peptide BEH C18 column (50*2.1 mm; 1.7 um; 130A)(Waters Co.,Milford, MA, USA)
Retention time: 13.97205
Precursor type: [M+NH4]+
Precursor m/z: 844.7362
Intensity: 500409
m/z	relative intensity
71.049	2
71.085	13
77.038	4
79.054	19
81.069	77
83.049	1
83.085	30
85.063	1
85.101	11
91.054	9
93.069	29
95.05	0
95.085	82
97.064	3
97.1	25
99.08	7
99.116	1
105.069	8
107.085	21
109.065	0
109.1	55
111.08	2
111.116	14
113.095	4
113.133	0
117.069	1
119.084	10
121.101	47
123.078	0
123.116	45
125.095	3
125.131	2
127.112	2
131.084	2
133.1	16
135.117	37
137.095	0
137.132	27
139.111	4
139.146	1
141.127	2
145.101	3
147.116	13
149.096	0
149.132	22
151.109	1
151.147	11
153.126	5
155.142	1
157.102	0
159.116	5
161.098	0
161.132	25
163.114	0
163.148	28
165.122	1
165.133	0
165.162	6
167.142	4
171.117	1
173.132	6
175.115	0
175.148	26
177.125	0
177.163	11
179.143	2
179.178	2
181.159	2
185.136	1
187.148	4
189.127	0
189.163	11
191.142	0
191.179	4
193.159	4
193.193	4
195.137	0
195.176	0
199.149	0
201.162	2
203.181	5
205.156	0
205.193	1
207.136	0
207.175	3
209.153	0
209.193	3
211.205	51
213.161	1
215.179	1
217.195	6
219.173	0
219.21	26
221.151	1
221.189	1
221.222	1
223.17	0
227.176	0
228.231	1
229.216	0
231.171	0
231.216	0
233.224	2
235.167	1
235.204	5
235.24	0
237.186	0
237.221	70
239.234	7
241.19	0
243.21	13
245.226	53
247.239	3
249.188	1
249.233	0
254.249	0
257.226	1
259.201	0
259.243	0
261.188	1
261.221	52
262.421	0
263.237	157
265.226	0
265.252	9
269.239	0
271.209	0
271.251	0
273.219	0
273.255	0
275.189	0
275.231	1
275.245	1
277.21	0
277.222	1
277.253	0
279.23	1
280.261	0
281.224	0
283.226	2
283.242	1
284.364	0
285.241	34
287.27	0
289.214	0
289.249	1
289.265	0
291.218	0
291.234	1
291.274	0
293.219	0
293.247	2
295.252	0
295.267	0
297.231	0
297.26	0
299.236	1
299.268	0
301.251	2
303.229	0
303.271	0
305.248	0
305.278	0
307.268	0
309.245	2
311.257	45
313.268	7
313.283	2
313.302	0
315.224	0
315.28	0
315.307	0
317.246	14
317.287	1
319.262	26
321.266	0
321.283	1
323.238	0
323.278	0
325.265	0
327.273	0
329.28	0
331.248	0
331.268	0
333.235	0
333.251	0
333.279	0
333.314	0
335.214	0
335.258	6
336.221	0
337.273	53
339.25	0
339.288	10
341.322	0
343.292	0
345.261	0
345.279	0
345.313	0
347.26	0
347.295	0
347.337	0
349.227	0
351.246	0
351.272	0
353.268	0
355.302	0
359.286	0
359.302	0
359.321	0
359.332	0
359.344	0
361.329	0
363.247	0
363.264	0
363.327	0
365.249	0
365.27	0
367.3	0
371.334	0
373.305	0
373.326	0
373.349	0
375.285	0
375.357	0
377.271	0
377.333	0
379.281	0
379.328	0
381.336	0
385.329	0
387.315	0
387.35	0
387.372	0
389.33	0
391.28	0
391.362	0
393.303	0
395.312	0
395.355	0
397.345	0
399.365	0
401.333	0
401.366	0
403.355	0
405.295	0
409.339	0
411.36	0
413.34	0
413.371	0
415.352	0
417.293	0
417.315	0
417.37	0
419.326	0
419.368	0
421.346	0
423.348	1
427.354	0
429.364	0
431.328	0
431.387	0
433.321	0
433.357	0
435.334	0
435.361	0
437.359	0
437.388	0
441.377	0
443.391	0
445.336	0
445.365	0
447.345	0
447.378	0
449.347	0
449.361	0
451.369	0
455.407	0
455.433	0
457.402	0
459.377	0
461.359	0
461.405	0
463.368	0
463.388	0
463.423	0
465.387	0
467.377	0
471.422	1
473.431	2
473.449	1
475.373	1
477.389	0
481.427	0
481.441	0
487.373	1
489.38	0
489.399	1
489.442	0
497.436	1
499.42	0
499.442	3
499.46	2
501.393	0
503.41	0
507.429	0
507.449	2
507.467	1
509.449	0
515.405	0
515.434	0
517.434	0
517.455	2
517.474	0
519.428	1
519.45	0
521.45	3
521.474	1
523.453	0
525.463	8
529.443	0
533.442	0
533.463	0
535.46	1
535.48	1
543.446	1
543.478	8
545.455	207
545.746	1
545.773	1
545.792	0
547.323	1
547.468	999
548.468	11
548.828	0
549.376	0
549.486	265
555.458	0
559.467	2
561.487	2
571.469	235
571.671	0
573.128	0
573.368	0
573.459	0
573.484	888
574.486	5
574.511	0
575.501	102
576.495	0
577.515	1
577.54	0
581.497	1
587.49	1
589.508	0
591.489	1
591.515	0
597.605	0
597.627	1
597.66	0
599.5	781
600.166	0
600.502	1
600.52	1
601.514	97
601.554	0
603.528	2
603.554	1
605.493	0
605.498	0
605.587	0
615.489	0
615.511	0
617.508	2
627.543	0
633.517	0
671.601	0
673.504	0
673.554	0
675.573	0
685.597	0
687.57	0
697.577	0
697.618	0
701.545	0
701.578	0
701.593	0
701.608	0
701.633	0
703.572	0
711.601	0
715.575	0
715.599	1
715.617	0
715.641	0
717.621	0
725.635	0
729.587	0
729.61	1
729.655	0
743.578	0
743.609	1
743.651	0
743.671	0
757.626	0
771.644	0
791.674	0
809.694	29
825.128	0
827.708	134
828.667	0
828.711	0
842.034	0
842.088	0
842.125	0
844.575	0
844.734	104
845.724	0
845.768	0
