Mass spectrum: TG 56:3; LC-ESI-QTOF; MS2
Name: TG 56:3
Class:  TAG
Formula: C59H108O6
Exact mass: 913.5070000000001
SMILES: CCCCCCCCCCCCCCCCCC(=O)OCC(COC(=O)CCCCCCCCC\C=C/CCCCCCCC)OC(=O)CCCCCCCC\C=C/C=C\CCCCC
InChI: InChI=1S/C59H108O6/c1-4-7-10-13-16-19-22-25-28-29-32-34-37-40-43-46-49-52-58(61)64-55-56(65-59(62)53-50-47-44-41-38-35-31-27-24-21-18-15-12-9-6-3)54-63-57(60)51-48-45-42-39-36-33-30-26-23-20-17-14-11-8-5-2/h18,21,24-25,27-28,56H,4-17,19-20,22-23,26,29-55H2,1-3H3/b21-18-,27-24-,28-25-
Instrument: AB Sciex TripleTOF 5600+ system (Q-TOF) equipped with a DuoSpray ion source
Instrument type: LC-ESI-QTOF
Ms type: MS2
Ion mode: POSITIVE
Collision energy: 45V
Column name: Acquity UPLC Peptide BEH C18 column (50*2.1 mm; 1.7 um; 130A)(Waters Co.,Milford, MA, USA)
Retention time: 15.23389
Precursor type: [M+NH4]+
Precursor m/z: 930.8466
Intensity: 1305
m/z	relative intensity
81.07	16
83.084	14
95.086	25
111.119	8
186.992	39
187.0	20
226.987	14
239.238	16
247.241	25
263.23	26
263.243	12
265.253	41
268.997	79
293.278	20
308.988	8
313.275	14
319.272	9
321.323	14
339.289	20
341.311	10
348.986	10
367.319	16
395.356	8
430.989	20
433.006	25
473.01	8
515.024	18
575.493	154
575.518	132
577.521	44
594.988	17
601.518	188
603.534	604
604.533	29
605.558	22
629.533	39
629.552	170
629.581	31
631.545	146
631.567	999
632.573	31
632.596	12
633.578	558
633.634	18
657.568	164
657.596	115
657.607	45
659.591	26
895.78	8
895.867	7
913.825	45
913.87	10
914.833	4
930.824	132
930.849	153
930.872	75
931.836	22
931.902	4
935.79	8
