Mass spectrum: TG 58:6; LC-ESI-QTOF; MS2
Name: TG 58:6
Class:  TAG
Formula: C61H106O6
Exact mass: 935.5129999999999
SMILES: CCCCCCCCCCCCCCCCCC(=O)OCC(COC(=O)CCCCC\C=C/C\C=C/C\C=C/C\C=C/C\C=C/CC)OC(=O)CCCCCCCCC\C=C/CCCCCC
InChI: InChI=1S/C61H106O6/c1-4-7-10-13-16-19-22-25-28-29-30-31-34-36-39-42-45-48-51-54-60(63)66-57-58(67-61(64)55-52-49-46-43-40-37-33-27-24-21-18-15-12-9-6-3)56-65-59(62)53-50-47-44-41-38-35-32-26-23-20-17-14-11-8-5-2/h7,10,16,19,21,24-25,28,30-31,36,39,58H,4-6,8-9,11-15,17-18,20,22-23,26-27,29,32-35,37-38,40-57H2,1-3H3/b10-7-,19-16-,24-21-,28-25-,31-30-,39-36-
Instrument: AB Sciex TripleTOF 5600+ system (Q-TOF) equipped with a DuoSpray ion source
Instrument type: LC-ESI-QTOF
Ms type: MS2
Ion mode: POSITIVE
Collision energy: 45V
Column name: Acquity UPLC Peptide BEH C18 column (50*2.1 mm; 1.7 um; 130A)(Waters Co.,Milford, MA, USA)
Retention time: 14.79229
Precursor type: [M+NH4]+
Precursor m/z: 952.838
Intensity: 6354
m/z	relative intensity
81.071	38
91.054	39
95.084	34
105.07	26
109.101	26
119.086	29
121.101	48
135.117	23
171.113	38
173.131	26
175.151	21
185.131	43
187.147	21
189.165	43
199.151	26
201.158	24
201.171	21
203.182	112
215.183	23
217.196	35
227.18	36
231.209	26
247.242	23
263.234	29
265.247	22
269.221	31
269.237	24
287.239	95
293.283	19
295.247	16
297.263	76
313.251	53
315.262	117
315.277	60
337.269	31
337.285	24
339.287	100
339.299	51
341.307	80
343.276	14
367.319	98
369.273	13
369.338	10
371.298	48
387.29	15
389.302	16
577.494	17
577.523	29
587.512	13
595.505	14
601.523	21
603.53	999
604.525	33
605.528	63
605.554	92
607.546	19
623.504	17
625.505	98
625.53	112
629.548	26
629.574	19
631.54	225
631.568	732
632.573	26
651.501	41
651.525	281
651.546	272
652.565	15
653.505	24
653.529	204
653.555	302
654.548	15
655.558	301
655.607	39
657.576	18
669.538	12
671.565	12
679.552	46
679.584	23
681.572	4
757.633	7
823.736	4
824.698	4
832.74	4
851.727	9
855.758	5
861.741	4
863.568	7
870.732	20
870.782	15
882.771	9
917.754	9
917.795	31
935.787	261
935.811	167
935.842	85
936.844	14
943.735	14
943.807	19
952.814	394
952.847	333
952.897	24
953.814	11
953.855	16
