Mass spectrum: TG 51:2; LC-ESI-QTOF; MS2
Name: TG 51:2
Class:  TAG
Formula: C54H100O6
Exact mass: 845.3879999999999
SMILES: CCCCCCCCCCCCCCC(=O)OCC(COC(=O)CCCCCCC\C=C/CCCCCCCCC)OC(=O)CCCCC\C=C/CCCCCCCCC
InChI: InChI=1S/C54H100O6/c1-4-7-10-13-16-19-22-25-27-28-30-32-35-38-41-44-47-53(56)59-50-51(49-58-52(55)46-43-40-37-34-31-24-21-18-15-12-9-6-3)60-54(57)48-45-42-39-36-33-29-26-23-20-17-14-11-8-5-2/h27-29,33,51H,4-26,30-32,34-50H2,1-3H3/b28-27-,33-29-
Instrument: AB Sciex TripleTOF 5600+ system (Q-TOF) equipped with a DuoSpray ion source
Instrument type: LC-ESI-QTOF
Ms type: MS2
Ion mode: POSITIVE
Collision energy: 45V
Column name: Acquity UPLC Peptide BEH C18 column (50*2.1 mm; 1.7 um; 130A)(Waters Co.,Milford, MA, USA)
Retention time: 14.62267
Precursor type: [M+NH4]+
Precursor m/z: 862.785
Intensity: 9319
m/z	relative intensity
71.085	12
81.068	23
83.084	15
83.091	6
85.099	9
93.069	6
95.084	35
97.101	14
107.085	7
109.1	20
111.116	6
121.101	8
123.116	15
135.114	8
137.132	14
149.134	9
151.148	9
163.151	7
165.163	9
225.217	6
239.237	28
245.226	22
247.236	11
251.235	7
251.245	9
253.25	15
263.239	48
265.255	22
279.265	1
295.259	1
299.263	3
313.276	18
319.259	7
319.276	5
323.296	1
325.275	3
327.282	5
327.293	15
337.277	4
339.277	5
339.297	7
341.303	5
515.487	3
523.473	5
537.47	3
547.464	11
547.493	4
549.464	5
549.49	18
549.534	3
551.498	180
551.554	3
561.458	7
561.488	82
563.503	693
564.491	6
564.513	5
565.5	97
565.521	604
565.583	4
566.506	3
566.534	15
575.506	698
576.508	8
577.52	363
578.525	6
579.521	5
587.675	3
589.521	999
590.517	13
590.55	3
591.532	85
603.534	224
604.531	4
605.537	5
617.543	21
617.59	4
824.77	5
827.732	3
827.769	3
845.75	12
845.79	4
846.749	1
862.685	2
862.726	11
862.746	25
862.789	140
862.851	8
863.775	4
