Mass spectrum: TG 54:7; LC-ESI-QTOF; MS2
Name: TG 54:7
Class:  TAG
Formula: C57H96O6
Exact mass: 877.389
SMILES: CCCCC\C=C/C=C\CCCCCCCCC(=O)OCC(COC(=O)CCCCCCCCC\C=C/C=C\C=C/CC)OC(=O)CCCCCCCC\C=C/C=C\CCCCC
InChI: InChI=1S/C57H96O6/c1-4-7-10-13-16-19-22-25-28-31-34-37-40-43-46-49-55(58)61-52-54(63-57(60)51-48-45-42-39-36-33-30-27-24-21-18-15-12-9-6-3)53-62-56(59)50-47-44-41-38-35-32-29-26-23-20-17-14-11-8-5-2/h7,10,13,16-24,26-27,54H,4-6,8-9,11-12,14-15,25,28-53H2,1-3H3/b10-7-,16-13-,20-17-,21-18-,22-19-,26-23-,27-24-
Instrument: AB Sciex TripleTOF 5600+ system (Q-TOF) equipped with a DuoSpray ion source
Instrument type: LC-ESI-QTOF
Ms type: MS2
Ion mode: POSITIVE
Collision energy: 45V
Column name: Acquity UPLC Peptide BEH C18 column (50*2.1 mm; 1.7 um; 130A)(Waters Co.,Milford, MA, USA)
Retention time: 13.88423
Precursor type: [M+NH4]+
Precursor m/z: 894.7583
Intensity: 7216
m/z	relative intensity
79.054	22
81.069	33
91.054	14
93.069	26
95.078	12
95.088	30
107.087	10
109.103	18
119.085	19
121.099	22
133.101	15
135.113	13
135.122	10
149.134	14
161.132	19
163.149	18
173.134	17
175.148	21
177.161	9
243.208	22
245.222	16
245.233	17
259.207	12
261.221	81
263.234	44
263.247	10
287.241	3
299.232	3
301.257	5
311.265	4
317.241	17
317.259	15
319.258	14
319.283	3
335.263	29
337.274	51
337.286	12
337.303	3
339.287	8
371.344	3
473.356	4
489.397	4
505.433	6
515.401	4
517.415	5
523.448	21
525.476	8
541.464	12
571.475	5
573.497	8
579.521	5
595.461	20
595.476	67
595.505	13
597.487	999
597.63	8
599.461	12
599.503	821
599.562	7
601.523	17
613.478	4
615.508	8
623.483	6
623.519	13
751.608	3
765.624	2
779.631	3
793.638	3
797.657	22
797.683	16
807.672	3
859.718	22
859.753	7
874.933	2
877.731	156
877.992	1
879.759	3
894.298	1
894.754	231
894.919	2
