Mass spectrum: TG 52:0; LC-ESI-QTOF; MS2
Name: TG 52:0
Class:  TAG
Formula: C55H106O6
Exact mass: 863.4469999999999
SMILES: CCCCCCCCCCCCCCCCCC(=O)OCC(COC(=O)CCCCCCCCCCCCCCC)OC(=O)CCCCCCCCCCCCCCCCC
InChI: InChI=1S/C55H106O6/c1-4-7-10-13-16-19-22-25-27-30-33-36-39-42-45-48-54(57)60-51-52(50-59-53(56)47-44-41-38-35-32-29-24-21-18-15-12-9-6-3)61-55(58)49-46-43-40-37-34-31-28-26-23-20-17-14-11-8-5-2/h52H,4-51H2,1-3H3
Instrument: AB Sciex TripleTOF 5600+ system (Q-TOF) equipped with a DuoSpray ion source
Instrument type: LC-ESI-QTOF
Ms type: MS2
Ion mode: POSITIVE
Collision energy: 45V
Column name: Acquity UPLC Peptide BEH C18 column (50*2.1 mm; 1.7 um; 130A)(Waters Co.,Milford, MA, USA)
Retention time: 15.58217
Precursor type: [M+NH4]+
Precursor m/z: 880.8322
Intensity: 3616
m/z	relative intensity
71.083	5
81.071	8
83.081	3
83.091	5
85.102	7
95.085	16
97.098	4
109.1	7
111.116	3
123.11	3
123.121	2
137.133	6
239.238	25
249.262	6
267.268	25
268.991	3
295.297	3
302.974	3
313.274	6
340.24	1
341.294	2
341.306	6
344.992	1
384.974	3
390.995	1
427.019	1
466.981	2
523.466	2
551.461	2
551.498	85
551.518	22
565.526	2
577.719	4
578.515	1
579.531	999
580.521	3
580.564	2
593.55	2
607.562	616
607.64	1
608.556	4
635.596	5
793.473	1
880.687	2
880.751	7
880.8	18
880.832	34
880.867	14
880.888	5
