Mass spectrum: TG 56:4; LC-ESI-QTOF; MS2
Name: TG 56:4
Class:  TAG
Formula: C59H106O6
Exact mass: 911.491
SMILES: CCCCCCCC\C=C/CCCCCCCCCC(=O)OCC(COC(=O)CCCCCCCCC\C=C/CCCCCC)OC(=O)CCCCCCCC\C=C/C=C\CCCCC
InChI: InChI=1S/C59H106O6/c1-4-7-10-13-16-19-22-25-28-29-32-34-37-40-43-46-49-52-58(61)64-55-56(65-59(62)53-50-47-44-41-38-35-31-27-24-21-18-15-12-9-6-3)54-63-57(60)51-48-45-42-39-36-33-30-26-23-20-17-14-11-8-5-2/h18,20-21,23-25,27-28,56H,4-17,19,22,26,29-55H2,1-3H3/b21-18-,23-20-,27-24-,28-25-
Instrument: AB Sciex TripleTOF 5600+ system (Q-TOF) equipped with a DuoSpray ion source
Instrument type: LC-ESI-QTOF
Ms type: MS2
Ion mode: POSITIVE
Collision energy: 45V
Column name: Acquity UPLC Peptide BEH C18 column (50*2.1 mm; 1.7 um; 130A)(Waters Co.,Milford, MA, USA)
Retention time: 14.8959
Precursor type: [M+NH4]+
Precursor m/z: 928.8336
Intensity: 17029
m/z	relative intensity
71.085	2
79.054	5
81.069	17
83.084	10
85.064	2
85.1	1
91.054	2
93.069	7
95.085	20
97.065	2
97.099	10
97.106	3
99.079	1
105.072	3
107.084	5
109.1	13
111.116	5
113.096	1
119.085	1
121.101	9
123.116	10
125.132	2
127.111	1
133.1	1
135.117	9
137.131	5
141.127	1
147.117	2
149.133	6
151.141	2
161.132	5
163.146	7
165.162	3
167.141	1
175.15	3
177.163	3
179.18	2
189.165	2
191.18	2
193.194	2
203.184	2
205.195	1
243.209	1
245.225	12
247.241	12
261.22	1
263.237	51
265.254	35
273.256	2
275.272	7
279.233	1
282.281	1
289.243	1
289.256	1
291.251	0
291.259	1
291.275	3
293.264	2
293.283	31
301.252	0
305.246	0
313.263	0
319.267	9
319.302	0
321.281	2
323.302	0
335.261	1
337.272	8
337.285	4
339.288	23
341.302	2
345.268	0
347.29	2
349.297	1
349.314	2
365.274	1
365.318	1
367.323	18
369.339	0
377.258	0
393.312	0
405.295	0
433.362	0
519.441	1
527.468	1
545.503	2
555.503	3
557.523	2
573.479	8
573.502	4
573.531	2
575.479	2
575.508	5
577.521	4
592.536	1
599.502	27
599.611	1
599.645	2
601.519	885
602.515	4
603.533	115
605.517	2
605.549	5
615.52	2
617.549	1
626.519	1
627.509	7
627.531	29
627.551	8
627.599	1
629.549	999
630.54	3
630.573	3
631.564	844
632.552	4
632.578	2
633.583	4
633.607	1
643.57	1
645.568	1
647.547	1
655.566	17
657.572	8
657.597	4
657.608	1
673.551	1
683.585	0
685.61	0
687.564	1
715.59	1
727.642	0
757.631	0
771.651	0
785.689	0
813.686	1
813.75	0
827.771	0
843.749	0
846.745	0
870.749	2
870.776	1
893.791	8
893.821	3
893.857	0
896.773	43
896.805	11
911.735	0
911.809	79
912.811	1
925.911	1
925.957	0
928.62	0
928.748	0
928.83	262
929.831	4
