Mass spectrum: PG 36:2; LC-ESI-QTOF; MS2
Name: PG 36:2
Class:  PG
Formula: C42H79O10P
Exact mass: 775.0600000000001
SMILES: CCCCCCCCCCCCCCCCCC(=O)OCC(COP(O)(=O)OCC(O)CO)OC(=O)CCCCCCC\C=C/C\C=C/CCCCC
InChI: InChI=1S/C42H79O10P/c1-3-5-7-9-11-13-15-17-19-21-23-25-27-29-31-33-41(45)49-37-40(38-51-53(47,48)50-36-39(44)35-43)52-42(46)34-32-30-28-26-24-22-20-18-16-14-12-10-8-6-4-2/h12,14,18,20,39-40,43-44H,3-11,13,15-17,19,21-38H2,1-2H3,(H,47,48)/b14-12-,20-18-
Instrument: AB Sciex TripleTOF 5600+ system (Q-TOF) equipped with a DuoSpray ion source
Instrument type: LC-ESI-QTOF
Ms type: MS2
Ion mode: POSITIVE
Collision energy: 45V
Column name: Acquity UPLC Peptide BEH C18 column (50*2.1 mm; 1.7 um; 130A)(Waters Co.,Milford, MA, USA)
Retention time: 8.799853
Precursor type: [M+NH4]+
Precursor m/z: 792.5729
Intensity: 1206
m/z	relative intensity
81.07	15
85.102	13
95.086	9
135.113	9
163.148	9
184.071	110
239.238	18
273.26	9
291.272	20
313.273	18
319.255	7
337.272	15
341.299	11
347.288	4
365.303	31
369.348	11
370.357	25
371.343	4
587.473	4
601.637	9
602.52	4
603.509	195
603.53	999
603.552	196
604.535	9
605.512	4
605.551	36
606.544	6
607.526	15
607.56	18
649.488	4
651.541	11
733.473	11
745.447	4
746.46	4
756.562	7
759.544	18
759.556	29
759.593	36
792.494	20
792.542	36
792.564	11
792.575	18
