Mass spectrum: TG 46:1; LC-ESI-QTOF; MS2
Name: TG 46:1
Class:  TAG
Formula: C49H92O6
Exact mass: 777.269
SMILES: CCCCCCCCCCCCCCCC(=O)OC(COC(=O)CCCCCCCCCCC)COC(=O)CCCCCCCCC\C=C/CCCCCC
InChI: InChI=1S/C49H92O6/c1-4-7-10-13-16-19-21-23-24-26-27-30-33-36-39-42-48(51)54-45-46(44-53-47(50)41-38-35-32-29-18-15-12-9-6-3)55-49(52)43-40-37-34-31-28-25-22-20-17-14-11-8-5-2/h19,21,46H,4-18,20,22-45H2,1-3H3/b21-19-
Instrument: AB Sciex TripleTOF 5600+ system (Q-TOF) equipped with a DuoSpray ion source
Instrument type: LC-ESI-QTOF
Ms type: MS2
Ion mode: POSITIVE
Collision energy: 45V
Column name: Acquity UPLC Peptide BEH C18 column (50*2.1 mm; 1.7 um; 130A)(Waters Co.,Milford, MA, USA)
Retention time: 14.10518
Precursor type: [M+NH4]+
Precursor m/z: 794.7189
Intensity: 74995
m/z	relative intensity
71.086	16
79.054	4
81.07	31
83.085	23
85.067	2
85.102	19
93.069	4
95.085	48
97.065	2
97.101	17
99.079	1
99.117	3
107.087	5
109.101	26
111.08	1
111.117	10
113.134	2
121.101	15
123.116	16
125.131	2
135.115	13
137.133	10
139.108	1
139.149	1
149.135	4
151.149	2
151.159	1
153.124	2
155.142	1
163.141	1
163.15	2
165.165	3
167.144	1
177.161	2
179.18	1
183.174	9
191.174	2
191.186	1
193.195	4
209.189	5
211.205	53
219.212	11
221.227	5
228.232	1
229.218	1
237.22	27
239.236	46
247.243	5
256.259	2
256.273	1
257.213	1
257.244	1
265.253	18
283.221	0
283.235	0
285.245	9
293.237	0
293.252	0
295.274	0
297.284	0
301.276	1
311.256	5
313.275	13
313.298	0
321.276	1
339.288	2
341.31	0
447.415	1
467.4	0
467.42	0
475.456	1
493.427	21
493.893	1
495.44	271
519.793	0
519.819	2
519.836	1
519.867	0
521.314	1
521.456	999
521.843	1
522.457	0
522.474	0
522.584	0
523.27	0
523.471	629
535.464	0
547.767	2
547.787	1
549.374	0
549.486	832
550.49	1
551.501	104
551.557	0
575.707	1
577.515	174
577.538	39
577.57	1
579.545	0
605.523	1
605.549	7
605.574	1
759.653	0
759.685	0
777.66	0
777.688	0
777.71	1
792.241	0
794.534	0
794.724	56
795.744	0
