Mass spectrum: TG 52:8; LC-ESI-QTOF; MS2
Name: TG 52:8
Class:  TAG
Formula: C55H90O6
Exact mass: 847.319
SMILES: CCCCC\C=C/C=C\CCCCCCCCC(=O)OC(COC(=O)CCCCCCC\C=C/CCCC)COC(=O)CCC\C=C/C\C=C/C\C=C/C\C=C/C\C=C/CC
InChI: InChI=1S/C55H90O6/c1-4-7-10-13-16-19-22-24-26-27-29-30-33-36-39-42-45-48-54(57)60-51-52(50-59-53(56)47-44-41-38-35-32-21-18-15-12-9-6-3)61-55(58)49-46-43-40-37-34-31-28-25-23-20-17-14-11-8-5-2/h7,10,15-20,23-26,29-30,36,39,52H,4-6,8-9,11-14,21-22,27-28,31-35,37-38,40-51H2,1-3H3/b10-7-,18-15-,19-16-,20-17-,25-23-,26-24-,30-29-,39-36-
Instrument: AB Sciex TripleTOF 5600+ system (Q-TOF) equipped with a DuoSpray ion source
Instrument type: LC-ESI-QTOF
Ms type: MS2
Ion mode: POSITIVE
Collision energy: 45V
Column name: Acquity UPLC Peptide BEH C18 column (50*2.1 mm; 1.7 um; 130A)(Waters Co.,Milford, MA, USA)
Retention time: 13.60549
Precursor type: [M+NH4]+
Precursor m/z: 864.7048
Intensity: 14008
m/z	relative intensity
71.086	7
79.054	21
81.069	50
83.084	11
85.063	5
85.101	7
91.053	29
93.07	26
95.085	60
97.065	7
97.097	8
99.081	8
105.071	18
107.085	26
109.1	43
117.069	11
119.086	22
121.102	32
123.116	17
129.069	10
131.078	5
131.09	12
133.1	19
135.116	24
137.132	13
143.085	10
145.1	17
147.116	27
147.126	6
149.135	9
157.099	11
159.113	14
159.122	9
161.133	24
163.147	17
165.126	6
169.101	6
171.115	23
173.131	20
175.149	20
183.117	6
185.131	19
187.148	23
189.164	22
191.18	6
197.131	11
199.151	5
201.164	47
203.141	6
203.18	6
211.148	13
211.204	13
213.164	40
215.178	9
229.16	7
231.174	65
233.186	9
239.235	11
241.191	6
243.209	11
245.226	7
261.218	24
263.235	56
267.209	39
271.232	4
279.23	27
283.201	4
283.225	20
285.219	54
285.244	54
293.231	3
309.247	6
311.245	7
311.269	4
313.278	8
317.248	9
319.251	5
319.268	14
335.257	39
337.274	105
339.258	3
339.289	11
341.242	5
359.259	3
391.291	4
475.39	4
477.375	4
477.399	5
479.412	7
493.394	5
511.414	4
519.424	13
519.443	38
543.466	4
545.456	563
547.463	10
549.487	16
549.509	4
551.481	46
551.506	143
563.453	8
565.409	7
565.437	15
565.47	25
565.489	25
565.508	5
567.439	417
569.452	105
571.482	6
573.469	4
573.496	16
575.493	22
575.517	20
577.519	56
579.541	5
585.449	4
590.477	4
591.497	328
593.436	5
593.461	6
593.478	6
593.502	4
593.525	7
595.46	7
595.487	7
597.462	8
597.477	23
597.499	26
599.502	999
601.508	14
601.53	11
603.539	8
605.549	14
619.452	44
619.476	65
621.471	19
621.492	21
621.513	7
623.511	4
647.491	5
717.572	2
717.613	2
721.561	1
721.616	1
737.565	1
744.621	1
751.582	1
777.608	1
781.631	1
782.6	3
782.64	11
829.648	10
829.699	4
829.731	4
847.65	29
847.683	70
847.712	21
847.758	9
861.984	1
864.706	240
864.755	26
864.805	2
