Mass spectrum: TG 56:6; LC-ESI-QTOF; MS2
Name: TG 56:6
Class:  TAG
Formula: C59H102O6
Exact mass: 907.4590000000001
SMILES: CCCCCCCCCCCCCCCC(=O)OCC(COC(=O)CCCCC\C=C/C\C=C/C\C=C/C\C=C/C\C=C/CC)OC(=O)CCCCCCCCC\C=C/CCCCCC
InChI: InChI=1S/C59H102O6/c1-4-7-10-13-16-19-22-25-27-28-29-30-32-34-37-40-43-46-49-52-58(61)64-55-56(54-63-57(60)51-48-45-42-39-36-33-24-21-18-15-12-9-6-3)65-59(62)53-50-47-44-41-38-35-31-26-23-20-17-14-11-8-5-2/h7,10,16,19-20,23,25,27,29-30,34,37,56H,4-6,8-9,11-15,17-18,21-22,24,26,28,31-33,35-36,38-55H2,1-3H3/b10-7-,19-16-,23-20-,27-25-,30-29-,37-34-
Instrument: AB Sciex TripleTOF 5600+ system (Q-TOF) equipped with a DuoSpray ion source
Instrument type: LC-ESI-QTOF
Ms type: MS2
Ion mode: POSITIVE
Collision energy: 45V
Column name: Acquity UPLC Peptide BEH C18 column (50*2.1 mm; 1.7 um; 130A)(Waters Co.,Milford, MA, USA)
Retention time: 14.49265
Precursor type: [M+NH4]+
Precursor m/z: 924.7975
Intensity: 27873
m/z	relative intensity
71.085	6
79.054	17
81.069	33
83.086	21
85.102	8
91.053	21
93.069	16
95.085	46
97.1	15
105.071	11
107.083	14
109.101	27
111.117	7
117.069	16
119.086	19
121.1	21
123.113	7
123.12	6
129.069	10
131.085	26
133.102	24
135.117	25
137.134	7
143.086	8
145.1	22
147.119	10
149.132	12
157.098	8
159.116	30
161.132	16
163.148	15
169.099	8
171.116	27
173.131	35
175.148	21
177.165	6
185.134	21
187.148	25
189.132	5
189.164	16
191.141	5
191.182	5
197.134	7
199.147	21
201.163	79
203.142	7
203.179	48
211.148	11
213.162	34
215.179	44
217.16	7
221.226	5
225.163	12
227.179	13
229.159	5
229.195	15
231.172	7
239.177	8
239.236	28
241.198	5
243.173	6
247.241	21
253.192	8
257.186	7
263.235	8
265.252	59
267.211	14
269.225	32
271.237	2
285.221	12
285.254	5
285.27	3
287.237	34
289.253	3
293.23	3
295.243	83
297.259	2
301.211	3
311.235	10
311.263	5
313.219	3
313.253	224
313.271	73
314.251	2
315.271	3
321.252	3
321.27	5
323.239	2
329.253	4
337.262	4
337.273	14
337.285	3
339.29	88
340.298	2
341.287	4
341.304	27
343.27	2
351.26	3
363.289	2
367.287	2
367.32	4
369.258	5
369.278	35
385.272	14
387.286	10
393.297	4
395.319	3
451.379	2
463.377	2
501.381	3
503.409	4
515.395	4
517.421	4
531.443	5
541.418	3
551.465	4
551.484	13
551.5	13
551.515	8
559.496	4
567.443	3
569.442	3
569.464	3
575.487	6
575.512	5
575.691	4
577.517	999
578.502	7
578.528	13
581.458	3
585.475	3
595.484	3
597.492	8
599.498	3
601.517	14
603.533	258
604.525	3
604.553	6
605.542	82
605.567	30
623.5	94
625.517	846
626.49	3
626.513	3
626.533	7
627.526	59
627.556	16
629.536	9
629.556	9
633.515	3
641.493	4
643.509	3
649.514	3
651.533	768
652.513	4
652.534	6
652.553	10
653.528	10
653.557	19
669.543	4
679.56	2
757.635	1
781.642	1
785.649	1
809.704	1
823.679	2
825.697	2
837.664	1
837.711	2
841.704	1
842.718	3
842.746	4
855.737	1
879.711	14
879.753	23
879.792	3
889.735	9
889.768	9
889.799	4
907.748	96
907.78	182
907.84	4
908.756	3
908.789	3
915.726	2
921.916	2
924.798	421
924.88	5
925.773	4
925.814	13
