Mass spectrum: TG 54:2; LC-ESI-QTOF; MS2
Name: TG 54:2
Class:  TAG
Formula: C57H106O6
Exact mass: 887.4689999999999
SMILES: CCCCCCCCCCCCCCCC(=O)OCC(COC(=O)CCCCCCCCC\C=C/CCCCCCCC)OC(=O)CCCCCCCCC\C=C/CCCCCC
InChI: InChI=1S/C57H106O6/c1-4-7-10-13-16-19-22-25-27-28-30-32-35-38-41-44-47-50-56(59)62-53-54(52-61-55(58)49-46-43-40-37-34-31-24-21-18-15-12-9-6-3)63-57(60)51-48-45-42-39-36-33-29-26-23-20-17-14-11-8-5-2/h20,23,25,27,54H,4-19,21-22,24,26,28-53H2,1-3H3/b23-20-,27-25-
Instrument: AB Sciex TripleTOF 5600+ system (Q-TOF) equipped with a DuoSpray ion source
Instrument type: LC-ESI-QTOF
Ms type: MS2
Ion mode: POSITIVE
Collision energy: 45V
Column name: Acquity UPLC Peptide BEH C18 column (50*2.1 mm; 1.7 um; 130A)(Waters Co.,Milford, MA, USA)
Retention time: 15.19148
Precursor type: [M+NH4]+
Precursor m/z: 904.8286
Intensity: 90092
m/z	relative intensity
71.048	0
71.086	5
77.038	0
79.054	2
81.07	15
83.085	10
85.065	0
85.101	6
91.056	0
93.069	4
95.086	20
97.065	0
97.101	11
99.08	0
99.118	1
107.084	2
109.101	15
111.081	1
111.116	6
113.1	0
113.126	0
113.133	0
119.084	0
121.101	9
123.117	8
125.094	0
125.13	2
127.112	0
127.149	0
133.101	0
135.116	10
137.133	4
139.113	0
139.149	0
141.128	0
147.118	0
149.132	5
151.149	2
153.128	1
155.141	0
161.132	0
163.146	4
165.163	3
167.144	1
169.156	0
175.15	1
177.163	1
179.179	2
181.159	0
189.162	0
191.18	1
193.193	0
205.193	0
207.206	0
221.23	0
239.239	6
245.228	2
247.243	17
249.257	2
263.237	8
265.252	64
266.257	0
267.268	21
275.276	1
277.285	0
282.277	0
282.289	0
283.257	0
284.288	0
284.298	1
285.274	0
291.268	0
293.285	5
293.311	0
295.298	0
301.273	0
303.274	0
313.274	3
313.29	0
319.261	1
321.278	3
323.288	0
323.306	0
335.247	0
337.269	0
337.288	0
339.291	11
341.303	17
349.312	0
367.318	1
367.341	0
369.336	0
529.486	1
529.509	0
531.518	1
547.478	0
549.485	1
551.498	1
551.523	0
557.531	0
559.539	0
575.501	39
575.702	0
576.505	0
577.517	210
578.526	1
579.534	27
580.544	0
589.523	0
591.531	0
601.611	0
601.641	1
601.672	1
601.695	0
603.301	0
603.4	0
603.531	743
603.588	0
604.006	0
604.165	0
604.531	7
604.557	3
605.318	0
605.408	1
605.546	999
605.613	2
606.258	0
606.517	1
606.543	47
606.565	89
606.796	0
607.006	0
607.112	0
607.563	142
608.552	0
608.573	0
617.538	0
619.559	0
629.546	0
629.582	0
631.564	197
632.547	0
632.572	1
632.596	0
633.574	9
659.58	0
659.613	0
860.768	0
869.744	0
869.765	0
869.791	1
869.812	0
878.825	0
884.793	0
887.767	2
887.801	9
887.825	3
887.851	0
888.781	0
901.919	0
902.03	0
904.698	0
904.828	103
904.918	0
905.827	2
905.863	0
