Mass spectrum: TG 49:1; LC-ESI-QTOF; MS2
Name: TG 49:1
Class:  TAG
Formula: C52H98O6
Exact mass: 819.35
SMILES: CCCCCCCCCCCCCCCCC(=O)OC(COC(=O)CCCCCCCCCCCCCC)COC(=O)CCCCC\C=C/CCCCCCCCC
InChI: InChI=1S/C52H98O6/c1-4-7-10-13-16-19-22-25-27-30-33-36-39-42-45-51(54)57-48-49(47-56-50(53)44-41-38-35-32-29-24-21-18-15-12-9-6-3)58-52(55)46-43-40-37-34-31-28-26-23-20-17-14-11-8-5-2/h27,30,49H,4-26,28-29,31-48H2,1-3H3/b30-27-
Instrument: AB Sciex TripleTOF 5600+ system (Q-TOF) equipped with a DuoSpray ion source
Instrument type: LC-ESI-QTOF
Ms type: MS2
Ion mode: POSITIVE
Collision energy: 45V
Column name: Acquity UPLC Peptide BEH C18 column (50*2.1 mm; 1.7 um; 130A)(Waters Co.,Milford, MA, USA)
Retention time: 14.59138
Precursor type: [M+NH4]+
Precursor m/z: 836.7659
Intensity: 3624
m/z	relative intensity
71.086	25
81.07	40
83.085	25
85.104	24
95.088	48
97.103	14
109.101	33
111.117	19
121.106	13
135.12	17
225.209	21
225.226	32
239.224	44
239.233	17
239.246	37
247.24	15
251.229	20
251.246	13
265.251	39
285.239	3
299.253	13
307.251	2
313.262	14
313.28	17
325.278	6
339.267	6
339.302	4
345.011	2
523.437	14
523.462	20
535.434	18
535.496	14
537.461	387
537.477	129
537.483	135
537.49	137
537.502	297
537.516	81
537.522	51
549.442	19
549.464	104
549.491	178
549.508	41
549.515	25
549.522	18
551.471	209
551.49	187
551.501	82
551.508	89
551.515	72
551.525	106
551.534	32
563.475	956
563.497	999
563.518	937
563.534	165
563.571	13
565.475	20
565.5	153
565.525	32
565.536	52
565.545	18
577.497	444
577.516	148
577.528	311
577.567	31
591.494	16
591.508	51
591.541	54
591.584	25
819.711	7
819.802	2
836.694	6
836.706	13
836.723	44
836.747	20
836.755	20
836.776	41
836.792	14
836.8	13
836.808	12
836.832	6
