Mass spectrum: TG 54:4; LC-ESI-QTOF; MS2
Name: TG 54:4
Class:  TAG
Formula: C57H102O6
Exact mass: 883.437
SMILES: CCCCCC\C=C/CCCCCCCCCC(=O)OCC(COC(=O)CCCCCCCC\C=C/C=C\CCCCC)OC(=O)CCCCCCCCC\C=C/CCCCCC
InChI: InChI=1S/C57H102O6/c1-4-7-10-13-16-19-22-25-28-31-34-37-40-43-46-49-55(58)61-52-54(63-57(60)51-48-45-42-39-36-33-30-27-24-21-18-15-12-9-6-3)53-62-56(59)50-47-44-41-38-35-32-29-26-23-20-17-14-11-8-5-2/h16,19-25,54H,4-15,17-18,26-53H2,1-3H3/b19-16-,23-20-,24-21-,25-22-
Instrument: AB Sciex TripleTOF 5600+ system (Q-TOF) equipped with a DuoSpray ion source
Instrument type: LC-ESI-QTOF
Ms type: MS2
Ion mode: POSITIVE
Collision energy: 45V
Column name: Acquity UPLC Peptide BEH C18 column (50*2.1 mm; 1.7 um; 130A)(Waters Co.,Milford, MA, USA)
Retention time: 14.5685
Precursor type: [M+NH4]+
Precursor m/z: 900.7997
Intensity: 27193
m/z	relative intensity
71.086	1
79.053	3
81.07	14
83.084	7
85.103	1
91.052	1
93.07	3
95.085	18
97.062	0
97.1	6
99.08	1
105.071	1
107.085	3
109.1	12
111.081	1
111.116	4
113.095	1
119.086	1
121.1	10
123.115	6
125.096	0
127.112	0
133.101	1
135.116	8
137.132	2
147.116	2
149.13	4
149.139	1
151.146	2
153.124	1
161.131	4
163.146	4
165.161	3
167.141	0
173.13	0
175.147	4
177.163	2
179.179	1
181.161	1
189.164	1
191.18	1
203.177	1
205.192	1
239.237	0
245.228	10
247.242	12
261.217	1
263.236	35
265.252	41
271.235	0
273.255	0
282.277	0
287.24	0
289.253	2
291.272	0
293.287	0
301.25	0
303.257	0
305.245	0
307.256	0
311.263	0
313.276	1
317.241	0
319.266	6
321.269	0
321.281	1
321.296	0
323.297	0
335.259	0
337.272	9
337.299	0
338.283	0
339.292	25
340.29	0
341.301	0
341.33	0
345.28	0
347.285	0
363.289	0
365.287	0
367.314	0
377.268	0
379.282	0
387.37	0
389.381	0
391.286	0
393.297	0
407.324	0
415.388	0
419.392	0
429.418	0
432.986	0
433.403	0
463.374	0
477.398	0
491.416	0
503.411	0
505.429	0
509.471	0
525.458	0
527.481	4
527.508	0
529.495	0
545.453	0
545.49	1
545.509	0
553.489	0
573.476	8
573.499	4
573.517	1
575.504	27
576.501	0
577.517	17
577.558	0
578.529	0
579.527	0
587.496	0
589.524	1
599.502	29
599.539	2
599.642	3
599.681	0
600.51	0
601.334	0
601.517	999
601.986	0
602.523	49
602.594	0
603.534	607
603.958	0
604.525	20
604.544	16
604.564	4
605.522	0
615.542	0
617.513	0
617.553	1
619.515	1
619.552	0
627.534	24
627.577	1
628.549	1
629.519	2
629.553	14
630.564	0
631.559	0
659.526	0
673.53	0
743.625	0
745.63	0
753.643	0
757.626	0
757.679	0
771.632	0
771.675	0
785.656	0
785.696	0
799.724	0
809.732	0
813.686	0
865.745	1
865.766	5
865.797	1
883.716	1
883.775	58
883.846	0
884.77	0
884.784	0
884.803	1
895.689	1
895.721	1
895.753	0
897.986	0
900.8	109
900.904	0
901.789	3
901.818	2
901.843	1
901.861	0
