Mass spectrum: TG 54:3; LC-ESI-QTOF; MS2
Name: TG 54:3
Class:  TAG
Formula: C57H104O6
Exact mass: 885.453
SMILES: CCCCCCCCCCCCCCCC(=O)OCC(COC(=O)CCCCCCCCC\C=C/CCCCCCCC)OC(=O)CCCCCCCC\C=C/C=C\CCCCC
InChI: InChI=1S/C57H104O6/c1-4-7-10-13-16-19-22-25-27-28-30-32-35-38-41-44-47-50-56(59)62-53-54(52-61-55(58)49-46-43-40-37-34-31-24-21-18-15-12-9-6-3)63-57(60)51-48-45-42-39-36-33-29-26-23-20-17-14-11-8-5-2/h17,20,23,25-27,54H,4-16,18-19,21-22,24,28-53H2,1-3H3/b20-17-,26-23-,27-25-
Instrument: AB Sciex TripleTOF 5600+ system (Q-TOF) equipped with a DuoSpray ion source
Instrument type: LC-ESI-QTOF
Ms type: MS2
Ion mode: POSITIVE
Collision energy: 45V
Column name: Acquity UPLC Peptide BEH C18 column (50*2.1 mm; 1.7 um; 130A)(Waters Co.,Milford, MA, USA)
Retention time: 14.8598
Precursor type: [M+NH4]+
Precursor m/z: 902.8154
Intensity: 700138
m/z	relative intensity
71.048	0
71.085	4
77.038	1
79.054	7
81.07	29
83.085	22
85.065	1
85.101	4
91.054	1
93.07	9
95.085	37
97.065	1
97.101	19
99.081	1
99.116	0
101.094	0
105.07	0
107.085	8
109.101	24
111.08	2
111.116	12
113.095	1
113.131	0
119.086	0
121.101	25
123.117	12
125.096	1
125.132	3
127.112	1
133.101	0
135.117	26
137.132	6
139.109	2
139.149	0
141.128	1
147.113	0
147.123	0
149.132	14
151.149	7
153.126	4
155.143	0
161.133	1
163.148	11
165.164	10
167.144	2
169.159	1
173.134	0
175.148	1
177.164	5
179.18	3
181.155	0
181.164	0
183.174	0
187.147	0
189.165	0
191.179	4
193.195	0
195.166	0
195.175	0
203.181	0
205.187	1
205.196	2
209.153	0
209.191	0
217.197	0
219.212	0
221.229	0
223.171	0
223.205	0
237.184	0
237.218	1
239.238	6
245.225	4
247.242	54
249.259	0
251.2	0
263.237	10
264.424	0
264.447	0
265.253	183
266.257	0
267.271	2
273.246	0
275.266	0
275.28	0
279.222	0
279.244	0
282.28	2
283.262	0
284.297	0
285.25	0
285.28	0
287.234	0
289.245	0
291.271	0
293.239	0
293.285	4
301.253	0
303.269	0
305.248	0
311.251	0
311.273	0
313.274	4
314.275	0
319.262	1
319.281	0
321.242	0
321.279	8
323.293	1
335.257	0
337.273	2
337.29	0
338.234	0
339.291	73
340.281	0
340.307	0
341.28	0
341.304	3
341.317	0
341.335	0
343.309	0
347.291	0
349.319	0
357.297	0
365.306	0
367.308	0
367.325	1
393.292	0
403.381	0
417.409	0
431.434	0
511.482	0
529.495	7
545.479	0
547.496	0
547.528	0
555.515	0
573.692	0
575.504	134
576.498	0
577.52	34
578.51	0
579.503	0
579.521	1
579.537	3
579.558	0
589.501	0
589.519	0
601.52	135
601.617	1
601.644	4
601.662	1
601.689	0
601.724	0
602.512	0
602.53	1
602.567	0
602.921	0
603.223	0
603.315	0
603.361	0
603.395	0
603.416	1
603.533	999
603.981	0
604.138	0
604.188	1
604.348	0
604.557	212
604.621	0
604.778	23
604.947	4
605.139	7
605.328	0
605.546	209
606.527	0
606.565	1
607.215	0
607.816	0
608.155	0
608.813	0
609.94	0
611.452	0
617.57	0
621.552	0
627.567	0
629.552	92
631.564	25
673.599	0
675.558	0
743.684	0
759.665	0
773.655	0
787.702	0
801.737	0
859.767	0
861.775	0
867.724	0
867.767	3
867.797	3
867.87	0
883.008	0
885.79	50
885.843	1
886.764	0
886.822	0
899.922	0
899.976	0
900.018	0
901.475	0
901.862	0
902.67	0
902.815	81
902.89	0
903.779	0
903.806	0
903.834	1
