Mass spectrum: TG 47:1; LC-ESI-QTOF; MS2
Name: TG 47:1
Class:  TAG
Formula: C50H94O6
Exact mass: 791.2959999999999
SMILES: CCCCCCCCCCCCCCC(=O)OC(COC(=O)CCCCCCCCCCCCC)COC(=O)CCCCCCCCC\C=C/CCCCCC
InChI: InChI=1S/C50H94O6/c1-4-7-10-13-16-19-22-24-25-26-29-31-34-37-40-43-49(52)55-46-47(45-54-48(51)42-39-36-33-30-27-21-18-15-12-9-6-3)56-50(53)44-41-38-35-32-28-23-20-17-14-11-8-5-2/h19,22,47H,4-18,20-21,23-46H2,1-3H3/b22-19-
Instrument: AB Sciex TripleTOF 5600+ system (Q-TOF) equipped with a DuoSpray ion source
Instrument type: LC-ESI-QTOF
Ms type: MS2
Ion mode: POSITIVE
Collision energy: 45V
Column name: Acquity UPLC Peptide BEH C18 column (50*2.1 mm; 1.7 um; 130A)(Waters Co.,Milford, MA, USA)
Retention time: 14.22676
Precursor type: [M+NH4]+
Precursor m/z: 808.744
Intensity: 2589
m/z	relative intensity
81.071	62
95.087	32
97.099	37
221.224	22
237.223	30
239.24	45
253.016	37
265.25	22
285.242	22
299.267	30
339.291	15
509.46	355
509.488	31
521.454	85
523.455	37
523.484	115
535.472	999
537.489	479
537.516	61
549.474	194
549.492	641
549.515	93
551.501	53
563.468	22
563.488	147
563.509	385
563.528	53
577.514	86
591.542	22
775.599	22
808.581	37
808.721	55
808.76	75
