Mass spectrum: TG 54:8; LC-ESI-QTOF; MS2
Name: TG 54:8
Class:  TAG
Formula: C57H94O6
Exact mass: 875.3729999999999
SMILES: CCCCCCCC\C=C/CCCCCC(=O)OCC(COC(=O)CCC\C=C/C\C=C/C\C=C/C\C=C/C\C=C/CC)OC(=O)CCCCCCCC\C=C/C=C\CCCCC
InChI: InChI=1S/C57H94O6/c1-4-7-10-13-16-19-22-25-27-28-30-32-35-38-41-44-47-50-56(59)62-53-54(52-61-55(58)49-46-43-40-37-34-31-24-21-18-15-12-9-6-3)63-57(60)51-48-45-42-39-36-33-29-26-23-20-17-14-11-8-5-2/h7,10,16-17,19-20,23,25-27,30-32,34,38,41,54H,4-6,8-9,11-15,18,21-22,24,28-29,33,35-37,39-40,42-53H2,1-3H3/b10-7-,19-16-,20-17-,26-23-,27-25-,32-30-,34-31-,41-38-
Instrument: AB Sciex TripleTOF 5600+ system (Q-TOF) equipped with a DuoSpray ion source
Instrument type: LC-ESI-QTOF
Ms type: MS2
Ion mode: POSITIVE
Collision energy: 45V
Column name: Acquity UPLC Peptide BEH C18 column (50*2.1 mm; 1.7 um; 130A)(Waters Co.,Milford, MA, USA)
Retention time: 13.82065
Precursor type: [M+NH4]+
Precursor m/z: 892.7398
Intensity: 3950
m/z	relative intensity
81.071	30
91.054	17
95.085	32
105.069	13
107.086	17
121.099	27
131.085	18
133.102	14
135.114	23
145.097	17
159.116	26
161.133	23
171.117	22
173.127	23
175.145	23
183.118	21
185.129	19
189.162	14
197.133	22
199.146	22
201.164	93
219.213	14
225.169	13
237.218	25
263.238	19
267.208	73
283.202	12
285.208	16
285.223	74
293.223	6
311.237	17
311.258	72
311.271	32
313.261	9
313.275	28
317.245	7
319.27	8
335.263	18
337.273	79
339.301	4
341.249	6
359.255	4
391.29	5
547.47	121
547.501	21
571.474	12
573.484	999
574.49	8
575.512	25
577.508	13
579.534	7
591.495	16
593.465	10
593.525	13
595.454	45
595.471	94
595.495	16
597.479	17
597.496	27
601.513	6
619.446	17
619.467	42
619.51	11
619.543	16
621.487	278
623.497	11
647.5	9
771.636	6
777.609	2
810.663	18
830.71	2
845.703	3
847.836	2
857.721	9
866.739	2
875.666	12
875.706	38
875.737	26
875.769	6
883.578	3
883.697	5
883.76	14
883.918	2
889.93	3
892.646	9
892.672	10
892.715	121
892.734	77
892.758	93
892.794	16
892.845	3
893.745	2
