Mass spectrum: TG 48:4; LC-ESI-QTOF; MS2
Name: TG 48:4
Class:  TAG
Formula: C51H90O6
Exact mass: 799.275
SMILES: CCCCCCCCCCCC(=O)OCC(COC(=O)CCCCCCCCC\C=C/C=C\C=C/CC)OC(=O)CCCCCCCCC\C=C/CCCCCC
InChI: InChI=1S/C51H90O6/c1-4-7-10-13-16-19-21-23-25-27-29-32-35-38-41-44-50(53)56-47-48(46-55-49(52)43-40-37-34-31-18-15-12-9-6-3)57-51(54)45-42-39-36-33-30-28-26-24-22-20-17-14-11-8-5-2/h7,10,13,16,19-22,48H,4-6,8-9,11-12,14-15,17-18,23-47H2,1-3H3/b10-7-,16-13-,21-19-,22-20-
Instrument: AB Sciex TripleTOF 5600+ system (Q-TOF) equipped with a DuoSpray ion source
Instrument type: LC-ESI-QTOF
Ms type: MS2
Ion mode: POSITIVE
Collision energy: 45V
Column name: Acquity UPLC Peptide BEH C18 column (50*2.1 mm; 1.7 um; 130A)(Waters Co.,Milford, MA, USA)
Retention time: 13.72861
Precursor type: [M+NH4]+
Precursor m/z: 816.7077
Intensity: 2550
m/z	relative intensity
79.054	20
81.066	36
81.076	36
83.083	20
91.055	29
95.081	51
95.091	27
107.082	20
109.101	51
121.1	28
123.116	48
135.109	17
135.121	30
137.132	17
147.114	17
149.131	21
161.13	17
163.149	23
173.136	20
175.148	36
183.176	42
189.168	20
207.172	20
211.206	23
219.21	39
237.223	30
243.209	23
245.226	20
257.212	23
261.212	17
261.23	57
263.237	82
283.224	13
285.244	21
301.25	12
311.263	27
313.273	32
317.226	11
317.249	36
319.258	17
337.264	39
337.285	21
339.291	17
405.314	8
517.414	85
517.443	72
519.442	999
521.453	504
543.434	66
543.45	54
545.45	333
545.473	214
547.452	18
547.465	57
547.483	51
571.472	408
571.503	48
573.477	85
573.507	94
575.5	103
575.523	57
599.504	609
601.509	27
601.529	51
757.467	6
781.654	24
781.699	11
783.649	34
799.656	30
799.682	91
799.717	18
816.497	8
816.687	39
816.717	100
