Mass spectrum: TG 56:3; LC-ESI-QTOF; MS2
Name: TG 56:3
Class:  TAG
Formula: C59H108O6
Exact mass: 913.5070000000001
SMILES: CCCCCCCCCCCCCCCC(=O)OCC(COC(=O)CCCCCCCCC\C=C/CCCCCCCCCC)OC(=O)CCCCCCCC\C=C/C=C\CCCCC
InChI: InChI=1S/C59H108O6/c1-4-7-10-13-16-19-22-25-27-28-29-30-32-34-37-40-43-46-49-52-58(61)64-55-56(54-63-57(60)51-48-45-42-39-36-33-24-21-18-15-12-9-6-3)65-59(62)53-50-47-44-41-38-35-31-26-23-20-17-14-11-8-5-2/h17,20,23,26,28-29,56H,4-16,18-19,21-22,24-25,27,30-55H2,1-3H3/b20-17-,26-23-,29-28-
Instrument: AB Sciex TripleTOF 5600+ system (Q-TOF) equipped with a DuoSpray ion source
Instrument type: LC-ESI-QTOF
Ms type: MS2
Ion mode: POSITIVE
Collision energy: 45V
Column name: Acquity UPLC Peptide BEH C18 column (50*2.1 mm; 1.7 um; 130A)(Waters Co.,Milford, MA, USA)
Retention time: 15.25125
Precursor type: [M+NH4]+
Precursor m/z: 930.848
Intensity: 4130
m/z	relative intensity
81.069	17
83.084	8
95.085	15
97.102	10
109.099	13
111.118	4
121.102	7
123.115	5
135.118	8
149.132	7
163.149	4
245.226	8
247.24	7
263.233	16
263.25	6
265.253	34
267.268	7
275.274	4
291.268	1
293.282	26
293.305	2
313.276	4
319.26	8
321.272	2
321.314	2
337.275	7
339.29	13
341.286	1
341.307	7
342.307	4
349.306	3
367.321	13
369.336	6
390.997	2
433.005	1
573.501	4
575.467	4
575.495	51
575.512	39
575.537	6
576.509	3
577.517	4
577.551	3
597.477	4
599.502	5
601.493	16
601.517	70
601.55	8
601.654	3
603.534	806
604.538	17
605.527	22
605.556	36
607.578	10
608.555	6
609.57	7
625.489	12
625.508	26
625.534	14
625.575	3
627.51	29
627.53	25
627.549	15
627.597	3
629.548	365
630.552	8
631.564	999
632.556	11
632.577	15
633.577	380
634.571	4
634.604	3
653.541	7
657.571	66
657.597	22
657.622	4
659.595	7
676.997	1
685.617	4
689.575	0
704.989	0
729.688	0
895.796	8
906.939	2
909.715	4
909.79	672
910.774	8
910.804	6
910.837	4
913.799	19
913.835	30
930.784	5
930.845	225
930.893	23
930.944	2
931.828	6
931.896	3
