Mass spectrum: TG 58:11; LC-ESI-QTOF; MS2
Name: TG 58:11
Class:  TAG
Formula: C61H96O6
Exact mass: 925.433
SMILES: CCCCC\C=C/C=C\CCCCCCCCC(=O)OCC(COC(=O)CC\C=C/C\C=C/C\C=C/C\C=C/C\C=C/C\C=C/CC)OC(=O)CCCCCCCCC\C=C/C=C\C=C/CC
InChI: InChI=1S/C61H96O6/c1-4-7-10-13-16-19-22-25-28-29-30-31-34-36-39-42-45-48-51-54-60(63)66-57-58(67-61(64)55-52-49-46-43-40-37-33-27-24-21-18-15-12-9-6-3)56-65-59(62)53-50-47-44-41-38-35-32-26-23-20-17-14-11-8-5-2/h7,9-10,12,15-21,23-26,28,30-31,36,39,45,48,58H,4-6,8,11,13-14,22,27,29,32-35,37-38,40-44,46-47,49-57H2,1-3H3/b10-7-,12-9-,18-15-,19-16-,20-17-,24-21-,26-23-,28-25-,31-30-,39-36-,48-45-
Instrument: AB Sciex TripleTOF 5600+ system (Q-TOF) equipped with a DuoSpray ion source
Instrument type: LC-ESI-QTOF
Ms type: MS2
Ion mode: POSITIVE
Collision energy: 45V
Column name: Acquity UPLC Peptide BEH C18 column (50*2.1 mm; 1.7 um; 130A)(Waters Co.,Milford, MA, USA)
Retention time: 13.80722
Precursor type: [M+NH4]+
Precursor m/z: 942.7502
Intensity: 6915
m/z	relative intensity
79.055	14
81.07	28
91.052	15
93.071	19
95.085	30
105.07	7
107.086	13
109.098	14
117.068	8
119.086	12
121.1	22
123.117	7
131.084	9
133.099	13
135.116	11
145.098	9
147.114	8
159.117	20
161.136	10
163.149	16
171.115	17
173.136	13
175.148	21
181.099	8
183.117	11
185.128	9
185.14	14
187.148	13
189.162	7
197.134	6
199.149	12
201.166	18
209.134	11
211.15	12
213.162	17
215.179	9
223.15	10
225.167	9
227.177	15
227.188	9
229.158	8
237.164	7
243.216	7
245.228	8
251.181	8
261.213	7
261.223	22
263.238	27
269.231	11
277.213	3
279.207	2
283.206	4
283.242	4
291.205	3
293.226	32
293.245	5
295.243	2
299.24	3
309.222	7
311.239	74
312.243	2
313.251	2
315.23	2
317.241	8
317.254	7
319.256	5
319.269	4
333.24	2
335.255	29
335.276	3
337.274	49
367.267	7
369.292	2
385.273	8
389.269	4
391.283	2
433.354	2
501.39	2
523.448	4
571.452	2
573.464	4
595.457	8
595.622	3
596.455	9
596.486	12
597.489	999
598.478	8
598.508	4
599.493	11
599.515	13
615.49	7
621.489	3
623.511	4
643.462	4
645.459	24
645.489	185
645.52	16
646.492	8
647.502	190
647.522	45
648.512	4
649.517	4
663.499	2
696.506	8
761.567	1
815.619	1
843.66	1
847.682	2
855.64	2
860.681	4
866.678	1
871.649	3
871.661	7
871.688	8
871.719	3
883.669	6
883.711	3
907.695	7
907.739	5
925.699	18
925.717	45
925.749	32
925.777	7
926.737	2
942.745	215
942.776	127
943.733	2
943.776	4
