Mass spectrum: TG 60:12; LC-ESI-QTOF; MS2
Name: TG 60:12
Class:  TAG
Formula: C63H98O6
Exact mass: 951.471
SMILES: CCCCCC\C=C/CCCCCCCCCC(=O)OCC(COC(=O)CC\C=C/C\C=C/C\C=C/C\C=C/C\C=C/C\C=C/CC)OC(=O)CCC\C=C/C\C=C/C\C=C/C\C=C/C\C=C/CC
InChI: InChI=1S/C63H98O6/c1-4-7-10-13-16-19-22-25-28-30-31-33-35-38-41-44-47-50-53-56-62(65)68-59-60(58-67-61(64)55-52-49-46-43-40-37-34-27-24-21-18-15-12-9-6-3)69-63(66)57-54-51-48-45-42-39-36-32-29-26-23-20-17-14-11-8-5-2/h7-8,10-11,16-17,19-21,24-26,28-29,31,33,36,38-39,41,45,47-48,50,60H,4-6,9,12-15,18,22-23,27,30,32,34-35,37,40,42-44,46,49,51-59H2,1-3H3/b10-7-,11-8-,19-16-,20-17-,24-21-,28-25-,29-26-,33-31-,39-36-,41-38-,48-45-,50-47-
Instrument: AB Sciex TripleTOF 5600+ system (Q-TOF) equipped with a DuoSpray ion source
Instrument type: LC-ESI-QTOF
Ms type: MS2
Ion mode: POSITIVE
Collision energy: 45V
Column name: Acquity UPLC Peptide BEH C18 column (50*2.1 mm; 1.7 um; 130A)(Waters Co.,Milford, MA, USA)
Retention time: 13.9406
Precursor type: [M+NH4]+
Precursor m/z: 968.7649
Intensity: 1238
m/z	relative intensity
79.052	38
81.071	41
91.055	54
93.068	32
95.086	32
105.071	32
109.101	48
117.067	28
119.084	38
121.102	35
131.088	47
135.118	34
147.117	28
157.105	31
159.116	47
161.131	22
171.115	34
173.131	53
175.147	38
183.113	35
185.135	38
197.129	31
199.142	32
199.154	28
201.161	86
211.145	26
223.148	31
225.168	22
265.198	28
265.252	44
267.207	92
285.222	66
293.22	31
293.232	39
309.221	20
311.233	86
311.248	31
313.27	39
337.263	12
339.286	266
339.305	55
359.255	24
367.269	28
385.269	67
390.986	15
393.297	21
599.491	17
621.46	25
621.509	16
623.496	999
623.516	353
624.51	15
625.49	12
625.516	31
647.475	21
647.507	32
647.523	25
649.482	58
649.499	195
649.518	467
649.543	78
650.528	35
669.445	16
669.476	92
669.497	63
695.492	38
695.535	18
825.923	6
878.743	16
886.677	25
949.67	44
949.719	191
949.754	57
950.731	26
951.728	64
951.757	51
951.781	18
960.683	28
960.735	19
968.67	31
968.694	77
968.724	162
968.744	262
968.776	377
968.814	54
969.765	44
