Mass spectrum: TG 56:11; LC-ESI-QTOF; MS2
Name: TG 56:11
Class:  TAG
Formula: C59H92O6
Exact mass: 897.379
SMILES: CCCCCCCC\C=C/CCCCCC(=O)OCC(COC(=O)CCC\C=C/C\C=C/C\C=C/C\C=C/C\C=C/CC)OC(=O)CCC\C=C/C\C=C/C\C=C/C\C=C/C\C=C/CC
InChI: InChI=1S/C59H92O6/c1-4-7-10-13-16-19-22-25-27-29-31-34-37-40-43-46-49-52-58(61)64-55-56(54-63-57(60)51-48-45-42-39-36-33-24-21-18-15-12-9-6-3)65-59(62)53-50-47-44-41-38-35-32-30-28-26-23-20-17-14-11-8-5-2/h7-8,10-11,16-17,19-20,25-28,31-36,40-41,43-44,56H,4-6,9,12-15,18,21-24,29-30,37-39,42,45-55H2,1-3H3/b10-7-,11-8-,19-16-,20-17-,27-25-,28-26-,34-31-,35-32-,36-33-,43-40-,44-41-
Instrument: AB Sciex TripleTOF 5600+ system (Q-TOF) equipped with a DuoSpray ion source
Instrument type: LC-ESI-QTOF
Ms type: MS2
Ion mode: POSITIVE
Collision energy: 45V
Column name: Acquity UPLC Peptide BEH C18 column (50*2.1 mm; 1.7 um; 130A)(Waters Co.,Milford, MA, USA)
Retention time: 13.63047
Precursor type: [M+NH4]+
Precursor m/z: 914.7217
Intensity: 2840
m/z	relative intensity
79.054	26
81.07	20
83.084	13
91.054	36
93.068	16
95.086	29
105.069	17
109.099	16
117.068	26
119.085	27
121.1	35
129.072	16
131.085	34
133.1	23
135.115	19
143.085	15
145.099	27
157.101	13
159.114	26
161.136	15
163.149	11
169.099	22
171.118	24
173.136	16
175.149	17
185.131	34
187.15	30
189.164	12
197.13	25
199.149	31
201.163	124
211.149	23
219.21	19
225.169	13
237.22	22
239.18	12
267.211	76
283.199	10
285.222	92
309.243	7
311.259	319
333.236	3
337.278	6
339.294	5
341.249	11
357.233	4
359.241	7
359.261	32
361.274	5
365.249	7
365.268	17
569.453	11
591.44	10
593.485	6
595.472	999
596.458	29
596.488	29
613.493	6
617.454	9
619.465	7
621.463	7
621.492	8
621.525	4
623.505	10
643.468	76
643.492	41
643.513	6
645.468	4
661.482	5
719.534	1
733.563	1
809.611	1
815.609	1
879.696	10
893.61	4
893.667	48
897.664	13
897.683	31
897.714	52
911.88	5
914.654	4
914.7	102
914.722	161
914.749	89
915.721	9
