Mass spectrum: BMP 38:7; LC-ESI-QTOF; MS2
Name: BMP 38:7
Class:  BMP
Formula: C44H73O10P
Exact mass: 793.034
SMILES: CCCCC\C=C/C\C=C/CCCCCCCC(=O)OC(CO)COP(O)(=O)OCC(CO)OC(=O)CCC\C=C/C\C=C/C\C=C/C\C=C/C\C=C/CC
InChI: InChI=1S/C44H73O10P/c1-3-5-7-9-11-13-15-17-19-20-22-24-26-28-30-32-34-36-44(48)54-42(38-46)40-52-55(49,50)51-39-41(37-45)53-43(47)35-33-31-29-27-25-23-21-18-16-14-12-10-8-6-4-2/h5,7,11-14,17-19,21-22,24,28,30,41-42,45-46H,3-4,6,8-10,15-16,20,23,25-27,29,31-40H2,1-2H3,(H,49,50)/b7-5-,13-11-,14-12-,19-17-,21-18-,24-22-,30-28-
Instrument: AB Sciex TripleTOF 5600+ system (Q-TOF) equipped with a DuoSpray ion source
Instrument type: LC-ESI-QTOF
Ms type: MS2
Ion mode: POSITIVE
Collision energy: 45V
Column name: Acquity UPLC Peptide BEH C18 column (50*2.1 mm; 1.7 um; 130A)(Waters Co.,Milford, MA, USA)
Retention time: 7.72049
Precursor type: [M+NH4]+
Precursor m/z: 810.5273
Intensity: 279
m/z	relative intensity
81.069	11
91.052	11
95.085	33
117.067	11
147.119	12
184.071	11
201.165	28
207.187	12
245.225	16
267.208	34
311.256	44
337.274	999
359.256	525
361.277	11
385.282	28
560.814	11
621.482	17
651.436	31
651.489	17
793.499	11
