Mass spectrum: TG 53:4; LC-ESI-QTOF; MS2
Name: TG 53:4
Class:  TAG
Formula: C56H100O6
Exact mass: 869.41
SMILES: CCCCCCCCCCCCCCCCC(=O)OCC(COC(=O)CCCCCCCC\C=C/C=C\CCCCC)OC(=O)CCCCCCCC\C=C/C=C\CCCCC
InChI: InChI=1S/C56H100O6/c1-4-7-10-13-16-19-22-25-28-31-34-37-40-43-46-49-55(58)61-52-53(51-60-54(57)48-45-42-39-36-33-30-27-24-21-18-15-12-9-6-3)62-56(59)50-47-44-41-38-35-32-29-26-23-20-17-14-11-8-5-2/h16-17,19-20,22-23,25-26,53H,4-15,18,21,24,27-52H2,1-3H3/b19-16-,20-17-,25-22-,26-23-
Instrument: AB Sciex TripleTOF 5600+ system (Q-TOF) equipped with a DuoSpray ion source
Instrument type: LC-ESI-QTOF
Ms type: MS2
Ion mode: POSITIVE
Collision energy: 45V
Column name: Acquity UPLC Peptide BEH C18 column (50*2.1 mm; 1.7 um; 130A)(Waters Co.,Milford, MA, USA)
Retention time: 14.38246
Precursor type: [M+NH4]+
Precursor m/z: 886.781
Intensity: 10354
m/z	relative intensity
79.056	6
81.069	22
83.085	12
93.067	4
95.083	22
97.099	6
107.085	7
109.1	16
119.083	4
121.1	14
123.115	10
133.103	5
135.116	13
137.132	7
149.129	5
161.135	7
163.149	9
165.163	4
175.148	8
177.165	5
203.175	4
233.226	10
245.227	21
247.242	9
251.235	24
253.251	6
261.221	7
263.238	65
265.251	30
271.24	1
275.228	2
279.267	3
301.253	1
307.259	1
311.261	2
313.277	4
317.249	2
319.265	11
321.282	2
323.265	2
325.276	12
327.288	12
337.272	24
339.29	25
353.305	3
367.311	1
390.988	1
433.023	1
525.465	5
527.477	4
545.475	3
552.518	2
559.465	3
561.456	2
561.488	8
563.481	4
563.509	5
564.496	3
565.515	2
566.528	4
573.475	36
573.494	31
575.496	22
575.515	8
576.497	2
577.509	6
585.487	4
587.502	620
587.683	3
588.503	7
589.517	999
590.492	2
590.518	10
590.545	2
591.526	24
597.627	3
599.504	227
601.52	578
602.508	3
602.527	5
603.528	24
603.555	8
613.497	7
613.516	15
613.543	7
615.523	35
615.544	31
617.543	4
627.511	2
627.535	4
627.568	2
629.552	3
757.65	2
801.696	1
803.702	1
804.676	4
804.73	2
827.716	11
828.693	2
851.712	2
851.743	7
851.77	2
851.794	2
855.716	6
855.752	7
863.761	2
869.722	14
869.76	94
869.812	4
870.76	3
884.042	0
886.639	2
886.782	203
887.797	2
