Mass spectrum: TG 58:12; LC-ESI-QTOF; MS2
Name: TG 58:12
Class:  TAG
Formula: C61H94O6
Exact mass: 923.4169999999999
SMILES: CCCCC\C=C/C=C\CCCCCCCCC(=O)OCC(COC(=O)CCC\C=C/C\C=C/C\C=C/C\C=C/C\C=C/CC)OC(=O)CCC\C=C/C\C=C/C\C=C/C\C=C/C\C=C/CC
InChI: InChI=1S/C61H94O6/c1-4-7-10-13-16-19-22-25-28-30-33-36-39-42-45-48-51-54-60(63)66-57-58(56-65-59(62)53-50-47-44-41-38-35-32-27-24-21-18-15-12-9-6-3)67-61(64)55-52-49-46-43-40-37-34-31-29-26-23-20-17-14-11-8-5-2/h7-8,10-11,16-21,24-29,33-34,36-37,42-43,45-46,58H,4-6,9,12-15,22-23,30-32,35,38-41,44,47-57H2,1-3H3/b10-7-,11-8-,19-16-,20-17-,21-18-,27-24-,28-25-,29-26-,36-33-,37-34-,45-42-,46-43-
Instrument: AB Sciex TripleTOF 5600+ system (Q-TOF) equipped with a DuoSpray ion source
Instrument type: LC-ESI-QTOF
Ms type: MS2
Ion mode: POSITIVE
Collision energy: 45V
Column name: Acquity UPLC Peptide BEH C18 column (50*2.1 mm; 1.7 um; 130A)(Waters Co.,Milford, MA, USA)
Retention time: 13.66957
Precursor type: [M+NH4]+
Precursor m/z: 940.7364
Intensity: 37750
m/z	relative intensity
77.039	5
79.053	15
81.069	26
83.086	5
85.066	2
91.053	26
93.069	22
95.084	29
97.064	5
97.1	4
105.068	18
107.084	15
109.1	14
111.079	2
115.052	2
117.068	20
119.085	23
121.1	22
123.08	2
123.117	11
125.095	2
128.063	2
129.07	12
131.085	30
133.1	21
135.078	2
135.116	16
137.134	3
141.069	3
143.084	11
145.1	23
147.117	13
149.094	3
149.131	8
155.086	4
157.1	15
159.116	29
161.094	3
161.131	19
163.111	4
163.148	8
169.099	14
171.116	23
173.133	33
175.111	6
175.148	19
177.128	3
177.164	3
181.101	2
183.117	19
185.132	29
187.11	3
187.147	20
189.127	3
189.164	11
195.114	2
197.131	20
199.147	23
201.128	5
201.163	114
203.141	5
203.181	4
209.132	2
211.147	16
213.162	8
215.144	6
215.18	3
217.157	2
223.147	2
225.163	14
227.142	2
227.177	3
237.161	4
239.179	9
241.196	7
243.21	7
245.224	4
255.212	2
257.192	3
257.224	7
263.235	19
265.194	7
267.21	87
269.219	3
269.231	2
277.188	1
279.212	1
281.188	2
283.206	9
285.221	69
286.219	1
287.23	1
289.189	1
293.221	1
293.233	1
295.211	1
299.197	1
309.219	1
311.236	2
311.262	14
319.258	3
319.271	1
321.275	1
323.233	1
335.254	5
336.229	1
337.273	272
338.272	2
338.284	1
339.29	3
341.236	2
341.252	5
345.252	1
347.262	1
357.247	4
359.258	45
361.281	1
365.273	2
367.253	1
367.303	1
385.279	2
390.997	1
391.264	1
391.285	12
413.266	1
415.292	1
433.322	1
447.332	1
459.344	1
459.362	1
461.356	1
471.359	1
472.991	0
473.351	0
477.378	0
485.357	1
485.395	0
487.372	0
497.357	0
499.374	1
501.384	1
511.372	1
513.401	1
515.393	1
521.361	0
525.396	0
527.415	1
529.417	1
529.445	2
537.392	0
539.415	1
547.433	1
547.456	4
547.488	0
551.398	1
551.425	1
555.005	0
561.402	0
565.452	0
569.433	2
595.47	43
595.506	2
597.482	1
619.465	5
619.493	2
619.547	1
619.583	0
621.487	999
622.49	38
623.533	2
635.507	0
637.486	1
639.482	2
639.51	2
641.444	0
641.47	0
643.469	93
643.524	2
644.466	1
645.493	0
647.495	0
647.525	1
649.518	1
659.455	1
659.485	0
661.456	0
661.493	1
669.467	2
669.495	5
669.525	0
729.538	0
747.581	0
759.565	0
761.568	0
773.583	0
787.577	0
799.583	0
801.606	1
809.621	0
813.598	1
813.643	0
815.61	0
820.651	0
827.638	1
839.596	0
839.638	0
839.665	0
839.689	0
841.627	1
853.599	0
853.628	0
853.662	0
857.666	0
905.675	2
905.701	2
905.723	2
905.772	0
923.71	67
923.79	0
924.718	2
924.744	0
937.779	1
937.817	0
940.619	0
940.667	1
940.736	350
941.709	6
941.752	14
