Mass spectrum: TG 47:2; LC-ESI-QTOF; MS2
Name: TG 47:2
Class:  TAG
Formula: C50H92O6
Exact mass: 789.28
SMILES: CCCCCCCCCCCCCCCC(=O)OC(COC(=O)CCCCCCCCCCCC)COC(=O)CCCCCCCC\C=C/C=C\CCCCC
InChI: InChI=1S/C50H92O6/c1-4-7-10-13-16-19-22-24-25-27-28-31-34-37-40-43-49(52)55-46-47(45-54-48(51)42-39-36-33-30-21-18-15-12-9-6-3)56-50(53)44-41-38-35-32-29-26-23-20-17-14-11-8-5-2/h16,19,22,24,47H,4-15,17-18,20-21,23,25-46H2,1-3H3/b19-16-,24-22-
Instrument: AB Sciex TripleTOF 5600+ system (Q-TOF) equipped with a DuoSpray ion source
Instrument type: LC-ESI-QTOF
Ms type: MS2
Ion mode: POSITIVE
Collision energy: 45V
Column name: Acquity UPLC Peptide BEH C18 column (50*2.1 mm; 1.7 um; 130A)(Waters Co.,Milford, MA, USA)
Retention time: 14.00481
Precursor type: [M+NH4]+
Precursor m/z: 806.7291
Intensity: 1183
m/z	relative intensity
81.07	192
85.104	85
95.089	142
97.103	68
109.103	125
121.104	85
123.119	108
184.077	85
211.213	90
221.196	137
225.225	120
263.238	138
285.253	51
311.282	34
313.287	291
507.446	332
509.429	102
509.465	999
519.443	205
521.453	418
521.468	228
521.476	226
521.485	123
521.503	120
533.449	490
533.476	456
535.459	403
535.489	909
535.51	159
547.461	421
547.493	770
549.471	138
549.516	197
551.499	329
551.528	315
561.468	243
561.497	770
561.526	262
563.496	121
563.508	120
563.536	195
575.502	174
575.53	173
589.524	126
789.703	34
806.656	56
806.729	190
806.765	156
