Mass spectrum: TG 53:3; LC-ESI-QTOF; MS2
Name: TG 53:3
Class:  TAG
Formula: C56H102O6
Exact mass: 871.426
SMILES: CCCCCCCCCCCCCCCC(=O)OCC(COC(=O)CCCCCCC\C=C/CCCCCCCCC)OC(=O)CCCCCCCC\C=C/C=C\CCCCC
InChI: InChI=1S/C56H102O6/c1-4-7-10-13-16-19-22-25-27-29-31-34-37-40-43-46-49-55(58)61-52-53(51-60-54(57)48-45-42-39-36-33-30-24-21-18-15-12-9-6-3)62-56(59)50-47-44-41-38-35-32-28-26-23-20-17-14-11-8-5-2/h17,20,23,26-27,29,53H,4-16,18-19,21-22,24-25,28,30-52H2,1-3H3/b20-17-,26-23-,29-27-
Instrument: AB Sciex TripleTOF 5600+ system (Q-TOF) equipped with a DuoSpray ion source
Instrument type: LC-ESI-QTOF
Ms type: MS2
Ion mode: POSITIVE
Collision energy: 45V
Column name: Acquity UPLC Peptide BEH C18 column (50*2.1 mm; 1.7 um; 130A)(Waters Co.,Milford, MA, USA)
Retention time: 14.67753
Precursor type: [M+NH4]+
Precursor m/z: 888.7991
Intensity: 1145
m/z	relative intensity
71.085	18
81.069	47
83.085	21
95.086	47
97.1	22
109.099	21
121.1	21
123.116	26
135.115	21
149.136	18
239.239	32
245.226	33
251.236	18
253.25	25
263.231	44
263.245	33
265.252	107
269.004	21
279.268	29
313.27	25
319.271	7
327.285	16
339.289	38
353.299	7
401.382	7
561.502	21
563.513	21
575.503	494
576.508	19
577.502	59
577.531	48
587.511	36
589.515	999
590.542	26
591.489	22
591.51	155
591.517	209
591.531	769
591.544	309
591.551	193
601.501	244
601.52	444
603.501	33
603.512	48
603.533	326
603.572	40
615.528	533
616.529	21
617.567	47
629.552	33
781.258	7
783.689	122
783.697	173
783.72	847
783.752	120
783.776	26
783.784	19
853.781	21
871.752	55
871.791	29
888.747	51
888.782	134
888.81	167
888.849	37
888.87	10
