Mass spectrum: PG 36:4; LC-ESI-QTOF; MS2
Name: PG 36:4
Class:  PG
Formula: C42H75O10P
Exact mass: 771.028
SMILES: CCCCCCCCCCCCCCCC(=O)OCC(COP(O)(=O)OCC(O)CO)OC(=O)CCCCCC\C=C/C\C=C/C\C=C/C\C=C/CC
InChI: InChI=1S/C42H75O10P/c1-3-5-7-9-11-13-15-17-18-19-20-22-24-26-28-30-32-34-42(46)52-40(38-51-53(47,48)50-36-39(44)35-43)37-49-41(45)33-31-29-27-25-23-21-16-14-12-10-8-6-4-2/h5,7,11,13,17-18,20,22,39-40,43-44H,3-4,6,8-10,12,14-16,19,21,23-38H2,1-2H3,(H,47,48)/b7-5-,13-11-,18-17-,22-20-
Instrument: AB Sciex TripleTOF 5600+ system (Q-TOF) equipped with a DuoSpray ion source
Instrument type: LC-ESI-QTOF
Ms type: MS2
Ion mode: POSITIVE
Collision energy: 45V
Column name: Acquity UPLC Peptide BEH C18 column (50*2.1 mm; 1.7 um; 130A)(Waters Co.,Milford, MA, USA)
Retention time: 8.347363
Precursor type: [M+NH4]+
Precursor m/z: 788.5415
Intensity: 305
m/z	relative intensity
128.953	44
184.074	58
185.078	29
185.137	44
203.185	89
263.233	29
269.219	29
269.245	33
313.268	193
313.285	177
337.268	29
575.492	999
575.516	509
597.641	29
599.473	179
599.49	268
599.504	327
599.519	224
599.533	149
599.552	44
603.528	29
647.484	58
788.517	29
