Mass spectrum: TG 54:6; LC-ESI-QTOF; MS2
Name: TG 54:6
Class:  TAG
Formula: C57H98O6
Exact mass: 879.405
SMILES: CCCCCCCCCCCCCCCC(=O)OCC(COC(=O)CCC\C=C/C\C=C/C\C=C/C\C=C/CCCCC)OC(=O)CCCCCCCC\C=C/C=C\CCCCC
InChI: InChI=1S/C57H98O6/c1-4-7-10-13-16-19-22-25-27-28-30-32-35-38-41-44-47-50-56(59)62-53-54(52-61-55(58)49-46-43-40-37-34-31-24-21-18-15-12-9-6-3)63-57(60)51-48-45-42-39-36-33-29-26-23-20-17-14-11-8-5-2/h16-17,19-20,23,25-27,30,32,38,41,54H,4-15,18,21-22,24,28-29,31,33-37,39-40,42-53H2,1-3H3/b19-16-,20-17-,26-23-,27-25-,32-30-,41-38-
Instrument: AB Sciex TripleTOF 5600+ system (Q-TOF) equipped with a DuoSpray ion source
Instrument type: LC-ESI-QTOF
Ms type: MS2
Ion mode: POSITIVE
Collision energy: 45V
Column name: Acquity UPLC Peptide BEH C18 column (50*2.1 mm; 1.7 um; 130A)(Waters Co.,Milford, MA, USA)
Retention time: 14.24036
Precursor type: [M+NH4]+
Precursor m/z: 896.7686
Intensity: 35889
m/z	relative intensity
71.085	4
79.052	7
81.069	22
83.085	8
85.063	2
85.101	6
91.053	15
93.069	12
95.085	28
97.062	2
97.1	6
105.07	11
107.085	7
109.101	15
111.115	2
117.07	7
119.085	15
121.101	10
123.117	8
129.067	3
131.085	9
133.1	16
135.118	4
137.133	7
143.086	3
145.099	4
145.106	2
147.116	7
149.13	4
151.146	3
157.101	7
159.116	5
161.132	11
163.109	2
163.147	8
165.164	3
171.116	15
173.133	9
175.113	3
175.147	16
177.161	6
185.133	17
187.148	10
189.127	3
189.165	22
191.18	5
197.131	2
199.147	11
201.165	14
203.143	4
203.179	89
211.15	1
213.163	7
215.18	3
217.197	2
221.226	2
227.178	5
239.235	22
241.194	2
243.213	6
245.227	12
259.206	3
259.242	11
261.219	2
263.237	30
265.251	2
267.21	5
269.227	76
271.247	1
279.217	1
283.243	1
285.221	7
287.237	103
288.241	1
289.254	1
295.243	1
299.23	0
301.254	0
303.221	1
311.258	3
312.306	0
313.274	112
314.279	0
317.248	1
319.262	8
325.255	1
335.259	1
336.226	1
337.242	0
337.275	98
338.278	2
339.288	7
343.267	5
355.284	1
359.261	2
361.27	1
361.29	1
367.273	1
367.286	4
371.311	0
379.292	0
391.268	1
391.289	3
393.312	0
435.34	0
437.354	1
447.354	1
451.373	1
459.338	1
463.385	0
465.389	1
485.364	0
501.47	1
507.466	0
511.377	1
513.427	0
519.452	0
523.469	0
525.396	0
525.462	2
531.46	3
547.474	0
549.473	20
549.495	15
551.507	0
567.459	0
567.478	1
573.46	1
573.488	7
573.695	1
573.714	1
575.375	0
575.502	999
576.5	26
576.528	5
577.517	52
578.505	1
595.453	0
595.466	1
595.509	0
597.437	0
597.486	30
597.518	3
597.632	1
598.49	0
599.504	200
600.5	6
600.538	1
601.526	3
603.533	0
615.523	0
617.499	2
617.523	0
621.451	1
621.48	11
621.509	4
621.55	1
621.582	0
623.502	270
624.504	11
624.551	0
625.502	2
625.526	5
625.547	1
639.499	1
641.507	1
643.53	0
651.536	1
711.621	0
713.568	0
715.597	0
723.601	0
727.647	0
729.626	0
741.599	0
753.609	0
755.631	0
767.614	0
767.659	0
769.705	0
781.625	1
795.672	1
795.715	0
814.719	0
861.702	3
861.727	4
861.75	4
861.773	1
876.997	0
877.693	14
877.722	96
877.755	32
877.807	2
878.683	1
878.722	4
878.75	2
878.785	1
879.739	79
879.827	0
880.707	0
880.741	2
880.763	1
880.788	1
893.954	0
896.686	1
896.771	198
896.852	1
897.749	2
897.778	7
897.82	1
