Mass spectrum: DG 24:1; LC-ESI-QTOF; MS2
Name: DG 24:1
Class:  DAG
Formula: C27H50O5
Exact mass: 454.69199999999995
SMILES: CCCCCCCC\C=C/CCCCCCCC(=O)OC(CO)COC(=O)CCCCC
InChI: InChI=1S/C27H50O5/c1-3-5-7-8-9-10-11-12-13-14-15-16-17-18-20-22-27(30)32-25(23-28)24-31-26(29)21-19-6-4-2/h12-13,25,28H,3-11,14-24H2,1-2H3/b13-12-
Instrument: AB Sciex TripleTOF 5600+ system (Q-TOF) equipped with a DuoSpray ion source
Instrument type: LC-ESI-QTOF
Ms type: MS2
Ion mode: POSITIVE
Collision energy: 45V
Column name: Acquity UPLC Peptide BEH C18 column (50*2.1 mm; 1.7 um; 130A)(Waters Co.,Milford, MA, USA)
Retention time: 8.032575
Precursor type: [M+NH4]+
Precursor m/z: 472.3998
Intensity: 612
m/z	relative intensity
83.084	227
95.086	272
99.078	363
173.105	181
173.109	318
173.112	418
173.116	409
173.12	554
173.123	272
265.253	181
339.276	272
339.281	272
339.293	999
339.307	227
437.359	181
437.364	227
437.38	363
