Mass spectrum: TG 52:6; LC-ESI-QTOF; MS2
Name: TG 52:6
Class:  TAG
Formula: C55H94O6
Exact mass: 851.3509999999999
SMILES: CCCCCCCCCCCCCCCC(=O)OCC(COC(=O)CCC\C=C/C\C=C/C\C=C/C\C=C/C\C=C/CC)OC(=O)CCCCC\C=C/CCCCCCCC
InChI: InChI=1S/C55H94O6/c1-4-7-10-13-16-19-22-25-26-27-28-31-33-36-39-42-45-48-54(57)60-51-52(61-55(58)49-46-43-40-37-34-30-24-21-18-15-12-9-6-3)50-59-53(56)47-44-41-38-35-32-29-23-20-17-14-11-8-5-2/h7,10,16,19,25-26,28,30-31,34,36,39,52H,4-6,8-9,11-15,17-18,20-24,27,29,32-33,35,37-38,40-51H2,1-3H3/b10-7-,19-16-,26-25-,31-28-,34-30-,39-36-
Instrument: AB Sciex TripleTOF 5600+ system (Q-TOF) equipped with a DuoSpray ion source
Instrument type: LC-ESI-QTOF
Ms type: MS2
Ion mode: POSITIVE
Collision energy: 45V
Column name: Acquity UPLC Peptide BEH C18 column (50*2.1 mm; 1.7 um; 130A)(Waters Co.,Milford, MA, USA)
Retention time: 13.94847
Precursor type: [M+NH4]+
Precursor m/z: 868.7344
Intensity: 13620
m/z	relative intensity
71.086	6
79.055	7
81.069	25
83.085	13
85.101	7
91.053	13
93.069	14
95.086	25
97.102	6
105.068	7
107.087	7
109.101	11
111.119	3
117.07	12
119.085	8
121.101	15
123.117	8
129.07	5
131.084	15
133.099	9
135.116	11
137.132	6
143.087	4
145.099	11
149.131	7
155.086	3
157.101	11
159.117	14
161.133	10
163.111	5
163.148	5
169.1	8
171.117	14
173.132	18
175.109	5
175.148	15
183.114	9
185.13	18
187.148	15
189.125	3
189.166	6
197.133	11
199.148	14
201.163	85
211.146	13
211.198	3
211.208	4
213.163	5
215.141	6
219.209	9
225.165	9
237.222	28
239.179	4
239.234	19
241.195	6
243.206	3
257.187	5
257.225	8
265.254	6
267.211	80
283.206	3
285.221	94
285.24	20
287.235	2
293.245	2
295.234	1
303.223	1
309.242	1
311.255	80
313.273	78
317.235	1
321.276	1
323.234	1
337.269	2
339.287	22
339.3	4
339.316	1
341.248	5
357.238	1
359.251	2
365.268	4
367.271	1
367.297	2
393.302	1
433.338	1
459.352	1
475.367	1
487.376	1
495.442	1
503.425	2
521.422	2
521.437	2
521.459	5
523.462	3
539.44	1
545.437	2
545.478	1
547.446	6
547.473	28
547.488	6
547.751	3
547.79	1
549.486	999
550.491	8
567.439	2
569.449	61
571.446	1
571.471	8
571.496	1
573.481	18
575.478	4
575.507	15
593.444	2
595.471	217
596.47	2
597.486	133
598.482	2
599.472	2
599.497	4
599.52	4
601.503	2
601.529	3
603.512	3
603.534	9
613.482	3
615.48	2
621.447	1
621.482	13
621.518	1
623.492	47
623.522	16
627.546	1
741.591	1
767.642	1
769.642	0
781.624	1
786.64	3
786.672	3
833.672	2
833.7	2
833.738	1
847.037	1
849.689	379
849.776	0
850.712	2
851.668	13
851.71	64
851.769	2
852.687	0
868.737	156
868.812	1
869.709	1
869.767	1
