Mass spectrum: TG 50:7; LC-ESI-QTOF; MS2
Name: TG 50:7
Class:  TAG
Formula: C53H88O6
Exact mass: 821.2810000000001
SMILES: CCCCCCCC\C=C/CCCCCC(=O)OC(COC(=O)CCCCCCC\C=C/CCCC)COC(=O)CCC\C=C/C\C=C/C\C=C/C\C=C/C\C=C/CC
InChI: InChI=1S/C53H88O6/c1-4-7-10-13-16-19-22-24-25-26-27-29-31-34-37-40-43-46-52(55)58-49-50(48-57-51(54)45-42-39-36-33-30-21-18-15-12-9-6-3)59-53(56)47-44-41-38-35-32-28-23-20-17-14-11-8-5-2/h7,10,15-16,18-19,24-25,27-29,32,34,37,50H,4-6,8-9,11-14,17,20-23,26,30-31,33,35-36,38-49H2,1-3H3/b10-7-,18-15-,19-16-,25-24-,29-27-,32-28-,37-34-
Instrument: AB Sciex TripleTOF 5600+ system (Q-TOF) equipped with a DuoSpray ion source
Instrument type: LC-ESI-QTOF
Ms type: MS2
Ion mode: POSITIVE
Collision energy: 45V
Column name: Acquity UPLC Peptide BEH C18 column (50*2.1 mm; 1.7 um; 130A)(Waters Co.,Milford, MA, USA)
Retention time: 13.55401
Precursor type: [M+NH4]+
Precursor m/z: 838.6896
Intensity: 873
m/z	relative intensity
81.074	129
83.083	129
95.084	103
109.098	103
175.144	103
201.16	103
213.165	108
257.21	129
267.205	155
285.226	129
293.239	51
311.248	85
327.25	51
337.28	209
438.902	59
475.01	59
493.426	245
519.416	291
519.433	999
519.454	684
541.402	155
541.447	180
547.453	155
549.489	129
551.505	524
565.473	552
565.504	423
567.441	335
573.475	475
573.495	315
593.508	214
595.464	103
621.474	155
621.504	155
653.559	129
700.614	51
700.66	364
701.582	51
756.615	214
779.625	51
821.655	162
838.675	374
