Mass spectrum: ChE 19:0; LC-ESI-QTOF; MS2
Name: ChE 19:0
Class:  CE
Formula: C46H82O2
Exact mass: 667.1600000000001
SMILES: CCCCCCCCCCCCCCCCCCC(=O)O[C@H]1CC[C@]2(C)[C@H]3CC[C@]4(C)C(CC[C@H]4[C@@H]3CC=C2C1)[C@H](C)CCCC(C)C
InChI: InChI=1S/C46H82O2/c1-7-8-9-10-11-12-13-14-15-16-17-18-19-20-21-22-26-44(47)48-39-31-33-45(5)38(35-39)27-28-40-42-30-29-41(37(4)25-23-24-36(2)3)46(42,6)34-32-43(40)45/h27,36-37,39-43H,7-26,28-35H2,1-6H3/t37-,39+,40+,41?,42+,43+,45+,46-/m1/s1
Instrument: AB Sciex TripleTOF 5600+ system (Q-TOF) equipped with a DuoSpray ion source
Instrument type: LC-ESI-QTOF
Ms type: MS2
Ion mode: POSITIVE
Collision energy: 45V
Column name: Acquity UPLC Peptide BEH C18 column (50*2.1 mm; 1.7 um; 130A)(Waters Co.,Milford, MA, USA)
Retention time: 15.55899
Precursor type: [M+NH4]+
Precursor m/z: 684.6646
Intensity: 3739
m/z	relative intensity
79.052	3
81.07	14
83.084	7
85.101	5
93.068	8
95.084	20
97.102	8
105.07	6
107.085	10
109.101	23
111.117	12
119.085	5
119.093	4
121.099	11
123.116	12
125.133	3
133.1	12
135.116	35
137.132	9
145.095	3
147.116	43
149.131	22
151.148	8
159.114	6
161.131	68
163.147	13
165.162	9
173.13	9
175.149	63
177.162	10
179.18	15
184.978	3
187.147	11
189.163	39
191.176	4
191.186	3
193.187	3
193.198	9
201.166	23
203.18	33
205.193	13
207.204	6
207.216	5
215.178	42
217.198	21
219.211	16
221.223	6
226.987	9
229.194	20
231.215	3
233.226	35
235.243	8
241.195	5
243.209	56
245.217	4
245.231	10
247.241	24
257.228	29
257.243	4
259.242	35
259.259	5
261.256	6
271.239	4
273.258	24
285.255	5
287.273	32
299.274	7
301.298	1
313.292	9
316.92	1
327.297	3
341.322	1
348.984	3
359.029	4
368.184	1
368.204	3
369.352	999
429.094	1
484.962	0
517.021	1
602.93	0
684.452	1
685.2	0
685.392	1
685.427	9
685.461	4
