Mass spectrum: TG 62:16; LC-ESI-QTOF; MS2
Name: TG 62:16
Class:  TAG
Formula: C65H94O6
Exact mass: 971.4609999999999
SMILES: CC\C=C/C\C=C/C\C=C/C\C=C/C\C=C/CCCC(=O)OCC(COC(=O)CC\C=C/C\C=C/C\C=C/C\C=C/C\C=C/C\C=C/CC)OC(=O)CCC\C=C/C\C=C/C\C=C/C\C=C/C\C=C/CC
InChI: InChI=1S/C65H94O6/c1-4-7-10-13-16-19-22-25-28-31-32-35-37-40-43-46-49-52-55-58-64(67)70-61-62(71-65(68)59-56-53-50-47-44-41-38-34-30-27-24-21-18-15-12-9-6-3)60-69-63(66)57-54-51-48-45-42-39-36-33-29-26-23-20-17-14-11-8-5-2/h7-12,16-21,25-30,32,35-36,38-41,43,45,47-50,52,62H,4-6,13-15,22-24,31,33-34,37,42,44,46,51,53-61H2,1-3H3/b10-7-,11-8-,12-9-,19-16-,20-17-,21-18-,28-25-,29-26-,30-27-,35-32-,39-36-,41-38-,43-40-,48-45-,50-47-,52-49-
Instrument: AB Sciex TripleTOF 5600+ system (Q-TOF) equipped with a DuoSpray ion source
Instrument type: LC-ESI-QTOF
Ms type: MS2
Ion mode: POSITIVE
Collision energy: 45V
Column name: Acquity UPLC Peptide BEH C18 column (50*2.1 mm; 1.7 um; 130A)(Waters Co.,Milford, MA, USA)
Retention time: 13.57757
Precursor type: [M+NH4]+
Precursor m/z: 988.7353
Intensity: 1325
m/z	relative intensity
91.053	95
105.065	65
117.069	80
119.088	65
131.087	101
157.102	65
159.115	72
161.132	72
171.115	72
173.13	87
185.131	88
187.144	65
197.131	65
201.166	221
267.207	88
281.185	21
283.216	28
285.224	72
293.226	36
311.236	43
359.259	177
359.277	21
385.27	95
385.292	95
577.434	14
587.446	14
617.461	14
643.443	117
643.469	361
643.487	127
663.503	15
667.451	14
669.459	133
669.488	999
669.508	230
669.537	51
670.492	59
671.522	28
687.525	14
835.558	21
919.624	23
919.687	147
953.732	21
955.666	23
971.693	65
988.677	80
988.727	611
988.76	279
988.8	73
989.712	28
989.77	23
