Mass spectrum: TG 58:10; LC-ESI-QTOF; MS2
Name: TG 58:10
Class:  TAG
Formula: C61H98O6
Exact mass: 927.449
SMILES: CCCCCC\C=C/CCCCCCCCCC(=O)OCC(COC(=O)CCC\C=C/C\C=C/C\C=C/C\C=C/C\C=C/CC)OC(=O)CCC\C=C/C\C=C/C\C=C/C\C=C/CCCCC
InChI: InChI=1S/C61H98O6/c1-4-7-10-13-16-19-22-25-28-30-33-36-39-42-45-48-51-54-60(63)66-57-58(56-65-59(62)53-50-47-44-41-38-35-32-27-24-21-18-15-12-9-6-3)67-61(64)55-52-49-46-43-40-37-34-31-29-26-23-20-17-14-11-8-5-2/h7,10,16-17,19-21,24-26,28-29,33-34,36-37,42-43,45-46,58H,4-6,8-9,11-15,18,22-23,27,30-32,35,38-41,44,47-57H2,1-3H3/b10-7-,19-16-,20-17-,24-21-,28-25-,29-26-,36-33-,37-34-,45-42-,46-43-
Instrument: AB Sciex TripleTOF 5600+ system (Q-TOF) equipped with a DuoSpray ion source
Instrument type: LC-ESI-QTOF
Ms type: MS2
Ion mode: POSITIVE
Collision energy: 45V
Column name: Acquity UPLC Peptide BEH C18 column (50*2.1 mm; 1.7 um; 130A)(Waters Co.,Milford, MA, USA)
Retention time: 13.99087
Precursor type: [M+NH4]+
Precursor m/z: 944.7675
Intensity: 18063
m/z	relative intensity
77.038	3
79.053	11
81.069	24
83.085	3
85.063	3
85.101	2
91.054	27
93.069	15
95.085	24
97.064	3
97.101	4
105.069	20
107.085	12
109.1	12
117.069	10
119.084	28
121.1	15
123.079	3
123.116	8
129.067	3
131.083	6
133.1	21
135.08	2
135.116	9
137.095	2
137.132	5
143.085	5
145.101	10
147.117	15
149.131	6
151.147	3
157.101	12
159.117	11
161.096	4
161.132	16
163.11	3
163.149	10
165.166	2
169.098	2
171.116	21
173.132	11
175.112	6
175.147	22
177.163	10
183.116	5
185.132	25
187.148	19
189.127	5
189.164	24
191.181	9
197.135	3
199.146	12
201.127	3
201.163	25
203.141	4
203.18	151
205.196	2
211.15	2
213.163	13
215.18	3
217.195	3
227.177	8
241.193	5
243.208	5
243.219	4
245.229	9
259.206	5
259.235	3
259.247	6
261.22	2
263.237	19
267.211	8
269.227	110
271.239	6
271.251	1
273.256	1
283.202	1
285.222	20
287.237	91
288.24	1
289.244	2
289.257	2
305.238	1
311.242	2
313.274	1
319.261	7
325.256	1
335.252	2
335.266	3
336.226	1
337.274	319
338.283	2
339.277	3
339.289	5
343.261	8
343.281	1
359.266	2
361.274	52
363.292	2
379.295	1
391.286	17
393.32	1
409.346	1
415.29	1
459.356	2
471.346	1
475.392	1
485.372	2
487.379	1
489.414	1
497.363	1
499.378	1
505.471	1
529.417	1
531.445	1
531.46	1
539.43	1
549.444	1
549.465	3
549.491	1
555.437	1
555.458	1
563.437	1
567.451	1
573.469	2
591.48	1
597.493	5
599.499	31
599.53	6
600.512	1
601.519	1
605.497	1
621.469	2
621.494	9
621.529	2
621.563	1
623.502	999
624.484	15
624.507	75
625.514	17
625.552	3
626.537	1
627.531	1
639.497	1
639.521	1
641.493	2
641.517	4
641.54	1
645.478	2
645.504	1
647.502	125
648.496	2
648.516	3
648.54	1
649.512	1
649.538	1
663.504	2
665.518	2
679.541	0
691.565	0
733.564	0
735.575	0
747.617	0
761.551	0
763.591	0
775.591	1
789.611	1
791.622	0
801.606	1
803.62	1
803.668	0
815.601	0
817.695	0
829.672	0
843.656	0
843.702	1
862.709	1
899.699	1
909.712	3
909.737	6
909.774	1
927.742	92
928.722	2
928.763	1
941.779	0
941.843	0
944.773	323
944.893	0
945.724	2
945.758	13
945.801	8
949.751	0
