Mass spectrum: TG 55:3; LC-ESI-QTOF; MS2
Name: TG 55:3
Class:  TAG
Formula: C58H106O6
Exact mass: 899.4799999999999
SMILES: CCCCCCCCCCCCCCCCCC(=O)OCC(COC(=O)CCCCCCC\C=C/CCCCCCCCC)OC(=O)CCCCCCCC\C=C/C=C\CCCCC
InChI: InChI=1S/C58H106O6/c1-4-7-10-13-16-19-22-25-28-31-33-36-39-42-45-48-51-57(60)63-54-55(64-58(61)52-49-46-43-40-37-34-30-27-24-21-18-15-12-9-6-3)53-62-56(59)50-47-44-41-38-35-32-29-26-23-20-17-14-11-8-5-2/h18,21,24,27-28,31,55H,4-17,19-20,22-23,25-26,29-30,32-54H2,1-3H3/b21-18-,27-24-,31-28-
Instrument: AB Sciex TripleTOF 5600+ system (Q-TOF) equipped with a DuoSpray ion source
Instrument type: LC-ESI-QTOF
Ms type: MS2
Ion mode: POSITIVE
Collision energy: 45V
Column name: Acquity UPLC Peptide BEH C18 column (50*2.1 mm; 1.7 um; 130A)(Waters Co.,Milford, MA, USA)
Retention time: 15.04168
Precursor type: [M+NH4]+
Precursor m/z: 916.8328
Intensity: 3921
m/z	relative intensity
71.088	4
81.07	17
83.085	8
93.069	7
95.085	18
97.101	9
107.088	4
109.101	9
121.102	6
123.116	8
135.115	13
149.131	6
163.149	4
245.225	9
247.242	11
261.254	6
263.228	9
263.242	14
265.251	38
265.267	4
277.241	1
279.268	16
281.285	6
289.23	1
293.288	3
307.298	4
313.27	3
319.264	3
321.272	4
327.286	5
332.949	1
335.299	3
337.267	4
339.29	20
348.988	1
353.308	8
355.321	10
367.324	3
573.471	9
573.502	6
575.486	21
575.505	29
575.53	10
589.486	11
589.52	54
589.546	17
591.544	10
592.531	14
594.553	8
601.514	266
603.511	87
603.534	361
603.593	6
604.549	7
605.546	16
615.517	28
615.541	66
617.55	999
618.575	6
619.567	454
629.526	7
629.535	19
629.554	49
631.567	29
643.537	13
643.567	58
643.603	9
645.576	10
657.596	11
676.834	1
829.741	3
881.805	5
891.815	4
899.765	4
899.799	25
899.837	12
911.713	10
911.759	62
911.786	20
911.817	21
911.859	7
916.55	4
916.77	15
916.823	238
