Mass spectrum: TG 51:0; LC-ESI-QTOF; MS2
Name: TG 51:0
Class:  TAG
Formula: C54H104O6
Exact mass: 849.42
SMILES: CCCCCCCCCCCCCCCCCCC(=O)OCC(COC(=O)CCCCCCCCCCCCCCC)OC(=O)CCCCCCCCCCCCCCC
InChI: InChI=1S/C54H104O6/c1-4-7-10-13-16-19-22-25-26-27-30-32-35-38-41-44-47-53(56)59-50-51(60-54(57)48-45-42-39-36-33-29-24-21-18-15-12-9-6-3)49-58-52(55)46-43-40-37-34-31-28-23-20-17-14-11-8-5-2/h51H,4-50H2,1-3H3
Instrument: AB Sciex TripleTOF 5600+ system (Q-TOF) equipped with a DuoSpray ion source
Instrument type: LC-ESI-QTOF
Ms type: MS2
Ion mode: POSITIVE
Collision energy: 45V
Column name: Acquity UPLC Peptide BEH C18 column (50*2.1 mm; 1.7 um; 130A)(Waters Co.,Milford, MA, USA)
Retention time: 15.34471
Precursor type: [M+NH4]+
Precursor m/z: 866.8135
Intensity: 4781
m/z	relative intensity
71.086	10
81.07	10
83.086	13
85.098	11
95.087	17
97.101	10
109.1	9
123.119	6
165.165	4
221.227	9
239.239	44
253.256	8
265.258	3
267.26	9
267.277	7
281.283	6
281.299	3
292.958	1
302.971	1
307.301	1
313.271	7
313.293	2
327.29	3
341.313	2
355.323	4
374.963	3
384.978	1
438.912	1
523.477	6
537.474	7
537.505	9
549.794	6
551.505	378
552.509	7
563.51	20
563.544	83
565.516	377
565.544	43
565.566	12
566.509	4
577.511	20
577.538	14
579.532	352
589.539	25
589.562	29
591.542	5
591.583	4
591.708	5
593.549	999
603.536	14
605.533	4
607.537	6
607.571	20
621.569	8
621.597	4
862.76	2
866.655	2
866.708	4
866.755	42
866.788	45
866.829	73
867.78	6
867.808	3
