Mass spectrum: TG 56:9; LC-ESI-QTOF; MS2
Name: TG 56:9
Class:  TAG
Formula: C59H96O6
Exact mass: 901.4110000000001
SMILES: CCCCCCCC\C=C/CCCCCC(=O)OCC(COC(=O)CC\C=C/C\C=C/C\C=C/C\C=C/C\C=C/C\C=C/CC)OC(=O)CCCCCCCC\C=C/C=C\CCCCC
InChI: InChI=1S/C59H96O6/c1-4-7-10-13-16-19-22-25-27-28-29-30-32-34-37-40-43-46-49-52-58(61)64-55-56(54-63-57(60)51-48-45-42-39-36-33-24-21-18-15-12-9-6-3)65-59(62)53-50-47-44-41-38-35-31-26-23-20-17-14-11-8-5-2/h7,10,16-17,19-20,23,25-27,29-30,33-34,36-37,43,46,56H,4-6,8-9,11-15,18,21-22,24,28,31-32,35,38-42,44-45,47-55H2,1-3H3/b10-7-,19-16-,20-17-,26-23-,27-25-,30-29-,36-33-,37-34-,46-43-
Instrument: AB Sciex TripleTOF 5600+ system (Q-TOF) equipped with a DuoSpray ion source
Instrument type: LC-ESI-QTOF
Ms type: MS2
Ion mode: POSITIVE
Collision energy: 45V
Column name: Acquity UPLC Peptide BEH C18 column (50*2.1 mm; 1.7 um; 130A)(Waters Co.,Milford, MA, USA)
Retention time: 13.89669
Precursor type: [M+NH4]+
Precursor m/z: 918.7531
Intensity: 9549
m/z	relative intensity
79.054	13
81.069	29
83.084	6
85.064	4
91.054	15
93.069	13
95.085	26
97.062	3
97.101	3
105.069	11
107.085	11
109.101	19
117.07	11
119.085	13
121.101	20
123.117	9
129.069	5
131.084	15
133.099	12
135.115	8
137.133	5
143.086	6
145.1	12
147.117	10
149.132	8
151.147	4
157.099	7
159.115	16
161.131	17
163.149	15
169.098	7
171.116	16
173.131	18
175.146	18
177.165	4
183.114	9
183.124	4
185.133	19
187.112	4
187.148	19
189.163	9
197.131	11
199.148	12
201.164	62
203.142	4
211.149	7
213.163	5
225.164	9
239.181	8
241.195	4
243.211	6
245.224	12
257.225	4
261.223	6
263.235	41
265.193	3
267.208	55
267.221	13
273.252	1
279.217	1
283.203	6
285.22	60
286.227	2
287.232	1
287.25	1
293.227	2
301.258	1
311.234	2
311.262	3
313.249	1
313.272	6
313.29	1
314.273	7
315.285	1
317.249	3
319.253	4
319.266	9
335.258	9
337.272	156
338.276	3
339.231	1
339.29	11
341.234	1
341.246	3
341.263	1
357.243	2
359.26	4
391.275	3
391.289	5
393.296	1
399.35	1
433.338	1
447.338	1
449.364	2
499.377	3
511.37	2
527.421	1
529.442	3
543.468	1
547.451	5
547.471	2
565.45	2
571.469	6
571.496	1
573.482	42
573.507	7
574.49	3
595.456	6
595.483	3
597.477	14
597.505	6
597.631	4
598.493	10
599.502	999
600.504	43
601.527	6
617.44	2
617.523	2
619.47	26
621.488	362
622.485	15
622.508	4
623.484	4
623.505	17
623.539	2
637.482	3
639.493	5
641.447	3
643.461	2
644.473	2
645.475	3
647.505	11
669.481	2
681.517	0
733.596	0
751.595	0
775.639	0
779.625	1
789.6	0
791.601	1
791.664	0
817.642	2
819.648	1
831.646	1
836.669	2
883.716	6
883.737	4
897.694	89
897.727	29
897.766	5
898.667	1
898.688	2
901.726	88
901.757	13
901.805	2
902.705	2
902.744	2
902.764	1
918.724	34
918.754	183
918.775	53
919.815	1
