Mass spectrum: TG 50:6; LC-ESI-QTOF; MS2
Name: TG 50:6
Class:  TAG
Formula: C53H90O6
Exact mass: 823.297
SMILES: CCCCCCCCCCCCCCCC(=O)OCC(COC(=O)CCCCCCCC\C=C/C=C\CCCCC)OC(=O)CCCCC\C=C/C=C\C=C/C=C\CC
InChI: InChI=1S/C53H90O6/c1-4-7-10-13-16-19-22-25-26-29-31-34-37-40-43-46-52(55)58-49-50(59-53(56)47-44-41-38-35-32-28-24-21-18-15-12-9-6-3)48-57-51(54)45-42-39-36-33-30-27-23-20-17-14-11-8-5-2/h9,12,15-16,18-19,21-22,24-25,28,32,50H,4-8,10-11,13-14,17,20,23,26-27,29-31,33-49H2,1-3H3/b12-9-,18-15-,19-16-,24-21-,25-22-,32-28-
Instrument: AB Sciex TripleTOF 5600+ system (Q-TOF) equipped with a DuoSpray ion source
Instrument type: LC-ESI-QTOF
Ms type: MS2
Ion mode: POSITIVE
Collision energy: 45V
Column name: Acquity UPLC Peptide BEH C18 column (50*2.1 mm; 1.7 um; 130A)(Waters Co.,Milford, MA, USA)
Retention time: 13.71125
Precursor type: [M+NH4]+
Precursor m/z: 840.7048
Intensity: 15287
m/z	relative intensity
71.084	6
79.054	13
81.069	24
83.084	8
85.1	5
91.054	12
93.07	11
95.084	35
97.099	8
105.068	8
107.087	6
109.1	18
119.083	5
121.099	17
123.114	12
131.085	9
133.099	13
135.117	9
137.13	5
145.097	5
147.115	17
149.132	5
157.1	8
159.115	7
161.132	10
171.116	19
173.132	9
175.147	9
183.117	5
185.134	10
187.145	9
189.162	14
199.147	5
201.165	15
203.179	8
211.148	7
211.208	7
213.164	46
231.173	61
239.237	29
245.231	5
263.235	25
267.206	12
273.196	1
283.226	5
285.223	16
285.245	11
287.194	1
293.226	5
301.211	1
305.216	2
311.228	3
311.257	15
311.272	5
313.275	50
317.247	1
319.249	2
319.264	6
335.25	3
337.273	29
339.273	2
339.29	6
341.239	1
341.273	1
341.311	1
359.261	2
367.274	2
367.293	2
391.278	3
421.323	1
451.402	1
469.408	1
493.38	2
493.408	3
495.423	10
495.441	31
495.457	8
517.416	2
519.444	8
521.455	203
539.408	3
541.398	4
541.419	28
543.441	186
545.431	2
545.453	9
545.484	3
547.446	2
547.477	4
549.489	4
551.487	2
565.676	2
567.44	229
569.433	8
569.453	46
571.45	2
571.487	3
573.484	44
573.704	5
575.504	999
576.504	7
577.5	1
577.519	3
593.433	3
593.475	2
595.45	8
595.476	27
597.48	8
597.499	5
599.479	3
599.493	5
599.513	3
601.508	8
601.545	2
603.523	4
603.543	3
621.48	7
623.495	10
623.517	6
758.62	1
805.628	1
805.666	4
805.704	1
821.661	250
821.75	2
823.637	5
823.663	21
823.692	24
838.083	1
840.621	1
840.66	13
840.689	54
840.711	78
840.756	6
