Mass spectrum: TG 58:11; LC-ESI-QTOF; MS2
Name: TG 58:11
Class:  TAG
Formula: C61H96O6
Exact mass: 925.433
SMILES: CCCCC\C=C/C=C\CCCCCCCCC(=O)OCC(COC(=O)CC\C=C/C\C=C/C\C=C/C\C=C/C\C=C/C\C=C/CC)OC(=O)CCCCCCCCC\C=C/C=C\C=C/CC
InChI: InChI=1S/C61H96O6/c1-4-7-10-13-16-19-22-25-28-29-30-31-34-36-39-42-45-48-51-54-60(63)66-57-58(67-61(64)55-52-49-46-43-40-37-33-27-24-21-18-15-12-9-6-3)56-65-59(62)53-50-47-44-41-38-35-32-26-23-20-17-14-11-8-5-2/h7,9-10,12,15-21,23-26,28,30-31,36,39,45,48,58H,4-6,8,11,13-14,22,27,29,32-35,37-38,40-44,46-47,49-57H2,1-3H3/b10-7-,12-9-,18-15-,19-16-,20-17-,24-21-,26-23-,28-25-,31-30-,39-36-,48-45-
Instrument: AB Sciex TripleTOF 5600+ system (Q-TOF) equipped with a DuoSpray ion source
Instrument type: LC-ESI-QTOF
Ms type: MS2
Ion mode: POSITIVE
Collision energy: 45V
Column name: Acquity UPLC Peptide BEH C18 column (50*2.1 mm; 1.7 um; 130A)(Waters Co.,Milford, MA, USA)
Retention time: 13.80017
Precursor type: [M+NH4]+
Precursor m/z: 942.7598
Intensity: 2456
m/z	relative intensity
79.052	14
81.068	26
91.051	17
93.068	13
95.084	26
107.084	15
109.098	22
121.101	31
129.07	11
131.089	13
135.114	18
145.099	11
147.115	20
159.113	14
161.128	21
171.116	15
173.132	22
175.146	19
185.133	11
187.143	12
199.147	23
201.167	11
203.179	11
211.146	11
213.161	15
215.179	13
227.176	11
245.224	12
261.22	34
263.239	17
267.211	11
279.218	5
283.243	9
293.225	49
311.219	14
311.238	39
313.266	4
317.236	5
317.257	8
319.259	4
333.238	6
335.256	27
335.269	8
337.274	47
367.263	6
385.268	6
391.281	6
567.45	9
571.465	4
573.467	8
595.473	30
595.625	5
596.464	27
596.492	7
597.485	999
598.478	8
598.5	7
599.477	7
599.505	19
619.457	11
623.481	4
623.525	4
645.479	153
645.503	64
647.5	261
647.547	8
648.51	5
661.49	4
663.479	6
669.483	5
682.927	2
696.499	7
696.986	2
697.505	1
815.645	2
840.677	2
847.646	40
847.677	78
847.707	17
849.549	2
855.626	2
907.716	10
925.676	5
925.707	27
925.736	46
925.786	4
939.769	2
942.654	3
942.694	17
942.728	105
942.764	180
942.838	6
943.74	8
