Mass spectrum: TG 56:3; LC-ESI-QTOF; MS2
Name: TG 56:3
Class:  TAG
Formula: C59H108O6
Exact mass: 913.5070000000001
SMILES: CCCCCCCCCCCCCCCCCC(=O)OCC(COC(=O)CCCCCCCCC\C=C/CCCCCCCC)OC(=O)CCCCCCCC\C=C/C=C\CCCCC
InChI: InChI=1S/C59H108O6/c1-4-7-10-13-16-19-22-25-28-29-32-34-37-40-43-46-49-52-58(61)64-55-56(65-59(62)53-50-47-44-41-38-35-31-27-24-21-18-15-12-9-6-3)54-63-57(60)51-48-45-42-39-36-33-30-26-23-20-17-14-11-8-5-2/h18,21,24-25,27-28,56H,4-17,19-20,22-23,26,29-55H2,1-3H3/b21-18-,27-24-,28-25-
Instrument: AB Sciex TripleTOF 5600+ system (Q-TOF) equipped with a DuoSpray ion source
Instrument type: LC-ESI-QTOF
Ms type: MS2
Ion mode: POSITIVE
Collision energy: 45V
Column name: Acquity UPLC Peptide BEH C18 column (50*2.1 mm; 1.7 um; 130A)(Waters Co.,Milford, MA, USA)
Retention time: 15.22525
Precursor type: [M+NH4]+
Precursor m/z: 930.8489
Intensity: 6847
m/z	relative intensity
71.085	3
81.069	14
83.083	7
93.068	2
95.084	16
97.1	7
107.085	2
109.1	9
111.115	5
121.101	7
123.115	6
135.116	7
137.128	2
149.131	4
151.152	2
163.149	3
165.163	3
179.177	2
245.223	3
247.232	2
247.244	9
263.236	12
265.251	35
275.262	1
275.276	4
282.284	1
291.264	1
293.284	19
310.312	1
313.268	1
313.295	1
319.265	3
321.286	4
321.32	3
335.261	1
337.263	1
337.284	2
339.289	11
341.295	1
341.307	4
341.322	1
349.312	2
367.318	8
367.332	5
369.338	2
395.343	1
395.365	1
529.508	1
547.472	2
555.522	1
573.504	2
575.464	2
575.5	81
576.512	2
577.525	3
601.512	53
601.539	14
601.674	1
602.515	2
603.351	1
603.535	677
604.515	3
604.54	22
605.554	15
605.575	3
617.534	1
627.604	1
629.551	168
630.55	4
631.565	999
632.535	2
632.56	13
632.585	11
633.581	222
633.647	2
634.581	4
657.558	22
657.585	64
657.637	2
658.573	1
658.6	1
659.564	1
659.593	3
659.613	5
685.623	3
715.669	0
724.862	0
743.711	0
745.66	0
758.995	0
895.81	3
895.849	1
913.767	2
913.807	25
913.84	11
913.899	1
914.843	1
920.757	1
927.934	1
930.846	195
930.945	1
931.81	2
931.85	6
931.911	1
935.826	1
