Mass spectrum: TG 56:8; LC-ESI-QTOF; MS2
Name: TG 56:8
Class:  TAG
Formula: C59H98O6
Exact mass: 903.427
SMILES: CCCCCCCCCCCCCCCC(=O)OCC(COC(=O)CC\C=C/C\C=C/C\C=C/C\C=C/C\C=C/C\C=C/CC)OC(=O)CCCCCCCC\C=C/C=C\CCCCC
InChI: InChI=1S/C59H98O6/c1-4-7-10-13-16-19-22-25-27-28-29-30-32-34-37-40-43-46-49-52-58(61)64-55-56(54-63-57(60)51-48-45-42-39-36-33-24-21-18-15-12-9-6-3)65-59(62)53-50-47-44-41-38-35-31-26-23-20-17-14-11-8-5-2/h7,10,16-17,19-20,23,25-27,29-30,34,37,43,46,56H,4-6,8-9,11-15,18,21-22,24,28,31-33,35-36,38-42,44-45,47-55H2,1-3H3/b10-7-,19-16-,20-17-,26-23-,27-25-,30-29-,37-34-,46-43-
Instrument: AB Sciex TripleTOF 5600+ system (Q-TOF) equipped with a DuoSpray ion source
Instrument type: LC-ESI-QTOF
Ms type: MS2
Ion mode: POSITIVE
Collision energy: 45V
Column name: Acquity UPLC Peptide BEH C18 column (50*2.1 mm; 1.7 um; 130A)(Waters Co.,Milford, MA, USA)
Retention time: 14.16011
Precursor type: [M+NH4]+
Precursor m/z: 920.7679
Intensity: 90078
m/z	relative intensity
71.05	0
71.085	10
77.037	3
79.053	14
81.069	41
83.048	1
83.084	16
85.065	1
85.1	10
91.054	17
93.069	18
95.047	0
95.085	46
97.065	2
97.1	11
99.079	2
99.116	3
103.053	0
105.069	11
107.085	14
109.063	0
109.1	30
111.079	2
111.116	3
113.095	1
113.131	1
115.054	1
117.069	8
119.084	14
121.065	1
121.1	18
123.079	1
123.116	22
125.094	1
125.131	2
127.114	0
128.062	1
129.069	7
131.085	16
133.1	17
135.077	1
135.115	14
137.095	1
137.132	9
139.146	1
141.069	4
143.084	6
145.1	11
147.081	1
147.115	11
149.095	1
149.131	11
151.109	0
151.147	4
153.068	1
153.125	1
155.085	4
157.101	11
159.08	1
159.116	16
161.088	0
161.098	2
161.132	20
163.11	1
163.147	13
165.068	2
165.125	1
165.162	3
167.086	3
167.147	0
169.101	13
171.115	18
173.097	2
173.131	16
175.11	3
175.125	0
175.148	21
177.129	1
177.165	5
179.146	1
179.181	1
181.101	8
181.161	0
183.116	11
185.095	1
185.132	17
187.112	5
187.147	9
189.128	5
189.162	8
191.141	1
191.181	1
193.102	0
193.157	2
195.116	8
197.132	11
199.111	3
199.148	14
201.127	5
201.163	19
203.143	2
203.178	7
205.195	0
207.114	1
207.175	1
209.13	12
211.148	19
213.123	2
213.138	1
213.163	19
215.143	4
215.18	14
217.152	1
217.164	0
217.199	0
219.209	1
221.129	1
221.144	0
221.226	5
222.14	0
223.148	17
225.127	0
225.163	11
227.142	5
227.179	27
229.158	8
229.19	1
229.201	1
231.174	1
233.132	0
235.145	1
236.157	0
237.162	6
237.221	1
239.14	1
239.179	5
239.236	49
241.158	10
241.194	3
243.174	2
243.212	2
245.192	1
245.227	13
247.154	0
247.24	1
249.159	0
249.172	1
249.184	1
250.169	1
251.178	8
253.193	3
255.169	1
255.179	1
255.213	1
256.259	1
256.27	0
257.19	1
257.251	1
261.164	0
261.221	1
263.18	1
263.199	0
263.237	53
264.242	0
265.197	7
265.253	2
267.174	1
267.211	8
269.189	2
269.226	17
275.171	0
279.223	0
280.263	0
281.198	0
281.225	1
283.207	5
283.241	9
285.182	0
285.226	0
289.192	0
291.211	4
293.226	79
294.23	1
295.209	0
295.244	1
297.225	0
297.271	0
297.284	0
301.253	1
307.205	0
309.223	6
311.237	113
312.246	1
313.273	80
317.246	1
319.262	12
323.235	0
325.213	0
327.23	1
335.254	0
335.27	1
337.273	58
338.273	0
339.239	0
339.292	2
341.26	0
341.279	0
349.255	1
359.317	0
363.282	0
365.249	0
365.287	0
367.264	11
367.286	6
367.301	1
383.257	3
385.256	0
385.272	2
391.285	5
393.324	0
395.317	0
405.317	0
409.34	0
421.329	0
423.335	0
423.359	0
447.348	0
451.359	0
459.346	0
461.358	0
463.396	0
465.388	0
471.341	0
473.375	0
485.364	0
489.389	0
491.398	0
499.377	0
501.39	0
501.471	1
503.408	0
513.398	0
513.442	0
521.433	0
525.387	0
531.438	0
531.461	1
539.402	0
541.419	0
545.45	0
549.462	2
549.482	1
555.453	3
571.455	0
573.46	8
573.484	6
573.704	4
573.728	2
575.36	1
575.386	0
575.5	999
576.508	84
577.42	0
577.491	2
577.511	6
577.533	4
581.458	0
591.474	1
601.5	0
601.52	1
619.482	0
621.479	7
621.507	3
623.501	343
624.463	1
624.498	20
624.519	22
624.562	0
625.5	0
625.518	0
627.55	1
639.491	2
639.515	1
641.506	3
641.535	1
645.489	0
647.501	452
648.486	3
648.505	9
648.534	2
649.511	10
649.541	2
650.515	0
663.51	1
665.5	1
665.529	0
683.532	0
685.562	0
709.576	0
711.6	0
723.587	0
727.593	0
735.613	0
737.591	0
739.59	0
741.618	0
749.66	0
751.619	0
765.625	0
767.598	0
775.66	0
777.663	0
779.614	0
781.614	0
781.639	0
791.656	0
793.612	0
793.652	0
795.654	0
805.671	0
807.635	0
809.666	0
819.617	0
819.645	0
819.69	0
821.653	0
821.691	0
833.639	0
833.671	0
835.708	0
837.693	0
847.692	0
852.69	1
852.716	3
852.75	1
861.736	0
875.689	0
875.747	0
885.708	4
885.74	4
885.765	1
886.736	0
900.924	0
903.741	92
903.816	0
904.696	0
904.742	3
917.847	0
917.906	0
917.939	0
920.766	178
921.723	0
921.775	17
925.719	0
