Mass spectrum: TG 50:4; LC-ESI-QTOF; MS2
Name: TG 50:4
Class:  TAG
Formula: C53H94O6
Exact mass: 827.329
SMILES: CCCCCCCCCCCCCC(=O)OCC(COC(=O)CCCCCCCCC\C=C/C=C\C=C/CC)OC(=O)CCCCCCCCC\C=C/CCCCCC
InChI: InChI=1S/C53H94O6/c1-4-7-10-13-16-19-22-24-26-28-31-34-37-40-43-46-52(55)58-49-50(48-57-51(54)45-42-39-36-33-30-21-18-15-12-9-6-3)59-53(56)47-44-41-38-35-32-29-27-25-23-20-17-14-11-8-5-2/h7,10,13,16,19-20,22-23,50H,4-6,8-9,11-12,14-15,17-18,21,24-49H2,1-3H3/b10-7-,16-13-,22-19-,23-20-
Instrument: AB Sciex TripleTOF 5600+ system (Q-TOF) equipped with a DuoSpray ion source
Instrument type: LC-ESI-QTOF
Ms type: MS2
Ion mode: POSITIVE
Collision energy: 45V
Column name: Acquity UPLC Peptide BEH C18 column (50*2.1 mm; 1.7 um; 130A)(Waters Co.,Milford, MA, USA)
Retention time: 13.97554
Precursor type: [M+NH4]+
Precursor m/z: 844.7358
Intensity: 72725
m/z	relative intensity
71.05	1
71.085	7
77.038	2
79.054	9
81.069	41
83.05	1
83.085	14
85.065	2
85.1	7
91.054	5
93.069	13
95.085	44
97.063	2
97.101	11
99.081	3
99.117	1
105.069	5
107.085	13
109.101	30
111.081	2
111.116	6
113.096	2
113.133	0
119.085	5
121.101	18
123.116	20
125.097	1
125.128	0
127.11	1
131.087	1
133.101	7
135.116	16
137.132	12
139.106	0
139.113	1
141.129	1
145.101	1
147.117	4
149.132	12
151.147	4
153.127	2
155.142	1
159.117	2
161.132	14
163.149	13
165.126	1
165.161	4
167.143	2
171.12	0
173.135	3
175.148	15
177.162	5
179.142	1
179.179	1
181.156	1
185.13	0
187.148	1
189.162	8
191.178	3
193.158	2
193.195	1
195.176	0
199.148	0
201.164	1
203.179	2
205.197	0
207.173	2
209.188	2
211.205	36
215.178	1
217.195	3
219.212	9
221.185	0
221.223	0
228.232	0
229.21	0
233.226	1
235.167	0
235.207	3
237.22	21
239.239	3
243.208	8
243.221	2
245.226	33
247.24	2
249.187	1
259.206	1
261.221	32
263.237	79
265.252	6
275.204	0
275.233	0
277.214	1
279.227	0
283.231	1
285.241	27
289.247	0
289.259	0
291.23	0
293.243	0
299.234	0
299.248	0
301.25	1
303.264	0
309.243	0
311.258	13
313.273	7
317.246	12
319.262	18
321.271	0
333.23	0
335.247	1
335.261	2
337.273	29
339.286	7
339.305	1
341.305	1
345.276	0
363.255	0
373.345	0
387.321	0
387.364	1
401.381	0
405.307	0
415.358	0
423.351	0
427.376	0
431.354	0
437.371	0
441.38	0
447.358	0
449.361	0
461.37	0
471.407	0
473.409	1
473.435	1
475.374	1
479.398	0
487.37	0
489.378	1
491.439	0
497.425	0
497.453	0
499.448	1
499.464	0
501.413	1
507.456	1
515.451	0
517.453	0
519.443	1
521.442	0
521.456	2
525.463	10
531.41	0
533.455	0
533.47	0
535.479	0
543.438	0
543.472	5
545.456	114
545.77	2
545.792	0
546.463	0
547.348	0
547.469	999
548.445	0
548.466	4
548.488	3
549.486	148
550.484	0
559.473	1
561.478	0
571.471	121
571.676	1
573.486	662
573.573	0
574.484	1
574.517	0
575.499	52
577.526	0
581.502	1
587.499	0
589.482	0
589.522	0
591.466	0
591.505	0
597.603	0
597.638	1
599.35	0
599.501	599
600.509	3
601.516	58
603.528	3
603.553	1
615.485	0
615.511	0
617.475	0
617.509	2
627.551	0
673.525	0
687.566	0
701.575	0
701.61	0
703.589	0
715.576	0
715.615	0
715.636	0
717.602	0
729.583	0
729.612	1
729.635	0
729.665	0
743.593	0
743.63	0
743.653	0
757.638	0
791.684	0
809.666	3
809.695	11
809.723	6
825.09	0
827.709	100
827.776	0
828.697	0
828.737	0
842.094	0
844.666	0
844.736	103
845.737	0
