Mass spectrum: TG 51:1; LC-ESI-QTOF; MS2
Name: TG 51:1
Class:  TAG
Formula: C54H102O6
Exact mass: 847.404
SMILES: CCCCCCCCCCCCCCCCC(=O)OC(COC(=O)CCCCCCCCCCCCCC)COC(=O)CCCCCCC\C=C/CCCCCCCCC
InChI: InChI=1S/C54H102O6/c1-4-7-10-13-16-19-22-25-27-28-30-32-35-38-41-44-47-53(56)59-50-51(49-58-52(55)46-43-40-37-34-31-24-21-18-15-12-9-6-3)60-54(57)48-45-42-39-36-33-29-26-23-20-17-14-11-8-5-2/h27-28,51H,4-26,29-50H2,1-3H3/b28-27-
Instrument: AB Sciex TripleTOF 5600+ system (Q-TOF) equipped with a DuoSpray ion source
Instrument type: LC-ESI-QTOF
Ms type: MS2
Ion mode: POSITIVE
Collision energy: 45V
Column name: Acquity UPLC Peptide BEH C18 column (50*2.1 mm; 1.7 um; 130A)(Waters Co.,Milford, MA, USA)
Retention time: 14.9574
Precursor type: [M+NH4]+
Precursor m/z: 864.7997
Intensity: 8324
m/z	relative intensity
71.085	7
81.069	18
83.085	24
85.101	13
95.084	31
97.099	16
109.106	5
111.117	6
121.101	7
123.115	8
135.118	8
137.129	7
239.237	42
247.242	12
253.256	9
265.245	26
265.264	16
267.27	5
279.267	6
281.263	1
299.267	1
313.273	10
321.287	3
327.273	3
327.299	8
339.281	6
341.314	2
537.471	11
537.5	9
549.47	29
549.491	32
549.516	6
551.483	45
551.502	104
551.525	33
563.478	23
563.501	151
563.525	36
565.519	620
566.514	6
577.518	629
579.513	12
579.533	33
579.558	7
589.699	5
591.535	999
593.524	8
593.547	13
593.573	14
605.544	87
605.575	13
619.568	11
619.593	7
679.02	1
829.797	1
839.72	1
845.732	16
845.76	14
845.788	5
847.758	5
847.824	1
864.747	10
864.798	121
864.859	4
865.77	1
