Mass spectrum: TG 54:8; LC-ESI-QTOF; MS2
Name: TG 54:8
Class:  TAG
Formula: C57H94O6
Exact mass: 875.3729999999999
SMILES: CCCCCCCC\C=C/CCCCCC(=O)OCC(COC(=O)CCC\C=C/C\C=C/C\C=C/C\C=C/C\C=C/CC)OC(=O)CCCCCCCC\C=C/C=C\CCCCC
InChI: InChI=1S/C57H94O6/c1-4-7-10-13-16-19-22-25-27-28-30-32-35-38-41-44-47-50-56(59)62-53-54(52-61-55(58)49-46-43-40-37-34-31-24-21-18-15-12-9-6-3)63-57(60)51-48-45-42-39-36-33-29-26-23-20-17-14-11-8-5-2/h7,10,16-17,19-20,23,25-27,30-32,34,38,41,54H,4-6,8-9,11-15,18,21-22,24,28-29,33,35-37,39-40,42-53H2,1-3H3/b10-7-,19-16-,20-17-,26-23-,27-25-,32-30-,34-31-,41-38-
Instrument: AB Sciex TripleTOF 5600+ system (Q-TOF) equipped with a DuoSpray ion source
Instrument type: LC-ESI-QTOF
Ms type: MS2
Ion mode: POSITIVE
Collision energy: 45V
Column name: Acquity UPLC Peptide BEH C18 column (50*2.1 mm; 1.7 um; 130A)(Waters Co.,Milford, MA, USA)
Retention time: 13.81121
Precursor type: [M+NH4]+
Precursor m/z: 892.7389
Intensity: 6262
m/z	relative intensity
79.053	23
81.069	35
83.085	12
91.052	12
93.069	17
95.084	35
97.101	11
105.067	13
109.103	12
117.069	11
119.086	14
121.095	10
121.103	16
123.115	16
131.086	14
133.1	18
135.115	18
145.101	13
157.101	10
159.117	12
161.13	16
163.146	9
171.116	10
173.131	30
175.148	28
183.116	15
185.133	16
187.15	24
189.159	12
197.131	12
199.147	16
201.161	59
203.141	9
211.146	14
219.209	11
225.167	9
237.222	33
241.2	13
245.224	9
263.236	39
267.21	72
283.209	7
285.221	64
287.237	3
309.246	3
311.257	98
313.265	4
317.242	3
319.26	8
335.255	11
337.271	119
339.095	3
339.286	4
341.251	10
359.261	4
365.272	8
391.282	9
431.341	3
447.344	3
461.352	3
529.445	8
545.46	11
547.46	9
571.454	12
571.485	8
573.487	999
574.468	5
574.485	8
574.508	12
575.511	8
577.511	7
577.538	6
591.484	8
593.463	5
593.51	12
595.471	244
596.478	8
597.487	60
597.517	14
599.5	57
603.533	11
619.508	8
619.534	8
619.552	7
621.45	10
621.487	224
621.532	13
622.484	8
623.515	5
739.576	2
753.595	2
765.59	2
793.667	2
809.663	3
810.629	4
810.666	10
810.698	4
845.664	6
857.7	13
857.73	4
871.65	9
871.681	21
871.718	3
875.665	11
875.702	52
875.734	63
875.776	3
876.713	6
884.671	6
892.699	31
892.734	174
892.763	68
892.789	15
893.694	4
893.746	8
