Mass spectrum: TG 54:2; LC-ESI-QTOF; MS2
Name: TG 54:2
Class:  TAG
Formula: C57H106O6
Exact mass: 887.4689999999999
SMILES: CCCCCCCCCCCCCCCC(=O)OCC(COC(=O)CCCCCCCCC\C=C/CCCCCCCC)OC(=O)CCCCCCCCC\C=C/CCCCCC
InChI: InChI=1S/C57H106O6/c1-4-7-10-13-16-19-22-25-27-28-30-32-35-38-41-44-47-50-56(59)62-53-54(52-61-55(58)49-46-43-40-37-34-31-24-21-18-15-12-9-6-3)63-57(60)51-48-45-42-39-36-33-29-26-23-20-17-14-11-8-5-2/h20,23,25,27,54H,4-19,21-22,24,26,28-53H2,1-3H3/b23-20-,27-25-
Instrument: AB Sciex TripleTOF 5600+ system (Q-TOF) equipped with a DuoSpray ion source
Instrument type: LC-ESI-QTOF
Ms type: MS2
Ion mode: POSITIVE
Collision energy: 45V
Column name: Acquity UPLC Peptide BEH C18 column (50*2.1 mm; 1.7 um; 130A)(Waters Co.,Milford, MA, USA)
Retention time: 15.19617
Precursor type: [M+NH4]+
Precursor m/z: 904.8323
Intensity: 2253
m/z	relative intensity
71.085	6
81.065	6
81.071	9
83.085	8
85.101	3
95.083	13
97.099	11
109.099	11
111.116	7
121.104	3
123.114	6
135.119	5
137.13	4
149.132	2
151.147	2
163.149	3
165.164	3
239.237	12
247.244	11
265.253	35
267.268	5
275.276	2
293.284	27
313.263	2
313.278	6
321.276	2
321.306	1
339.278	7
339.294	6
341.301	6
349.309	3
367.318	5
549.481	19
551.499	3
575.484	8
575.51	13
577.516	592
578.52	30
580.553	3
599.506	4
600.502	11
602.518	4
603.53	279
604.529	3
604.549	6
605.55	999
606.523	4
606.55	24
606.57	7
607.573	7
627.533	5
628.526	9
629.591	3
631.565	607
632.563	6
632.584	4
632.601	3
633.562	12
633.594	11
659.591	3
678.984	1
869.786	2
884.712	8
884.765	204
884.804	37
884.831	15
885.783	4
887.779	4
887.814	8
904.825	145
904.855	56
905.789	3
905.849	5
