Mass spectrum: TG 56:8; LC-ESI-QTOF; MS2
Name: TG 56:8
Class:  TAG
Formula: C59H98O6
Exact mass: 903.427
SMILES: CCCCCCCCCCCCCCCC(=O)OCC(COC(=O)CC\C=C/C\C=C/C\C=C/C\C=C/C\C=C/C\C=C/CC)OC(=O)CCCCCCCC\C=C/C=C\CCCCC
InChI: InChI=1S/C59H98O6/c1-4-7-10-13-16-19-22-25-27-28-29-30-32-34-37-40-43-46-49-52-58(61)64-55-56(54-63-57(60)51-48-45-42-39-36-33-24-21-18-15-12-9-6-3)65-59(62)53-50-47-44-41-38-35-31-26-23-20-17-14-11-8-5-2/h7,10,16-17,19-20,23,25-27,29-30,34,37,43,46,56H,4-6,8-9,11-15,18,21-22,24,28,31-33,35-36,38-42,44-45,47-55H2,1-3H3/b10-7-,19-16-,20-17-,26-23-,27-25-,30-29-,37-34-,46-43-
Instrument: AB Sciex TripleTOF 5600+ system (Q-TOF) equipped with a DuoSpray ion source
Instrument type: LC-ESI-QTOF
Ms type: MS2
Ion mode: POSITIVE
Collision energy: 45V
Column name: Acquity UPLC Peptide BEH C18 column (50*2.1 mm; 1.7 um; 130A)(Waters Co.,Milford, MA, USA)
Retention time: 14.14485
Precursor type: [M+NH4]+
Precursor m/z: 920.7675
Intensity: 337142
m/z	relative intensity
71.049	1
71.085	17
77.037	5
79.054	24
81.07	64
83.049	1
83.085	21
85.064	2
85.1	15
91.054	32
93.069	28
95.048	1
95.085	74
97.064	4
97.101	18
99.08	4
99.116	3
103.053	1
105.069	19
107.046	0
107.085	21
109.064	1
109.101	46
111.078	3
111.116	5
113.095	1
113.132	2
115.053	2
117.069	16
119.085	25
121.064	1
121.101	28
123.079	1
123.116	30
125.096	1
125.132	2
127.11	1
127.148	0
128.061	2
129.069	11
131.085	24
133.066	0
133.1	26
135.076	1
135.116	21
137.096	2
137.131	14
139.11	1
139.147	1
141.07	5
141.127	0
142.079	0
143.084	10
145.101	17
147.079	2
147.116	19
149.093	1
149.132	14
151.107	0
151.117	1
151.147	6
152.062	1
153.07	1
153.126	2
154.078	0
155.085	9
155.18	0
157.065	0
157.101	17
159.082	2
159.116	23
161.096	3
161.132	32
163.112	3
163.147	20
165.068	1
165.076	0
165.127	1
165.164	5
167.086	5
167.143	1
168.092	1
169.1	21
171.08	0
171.117	31
173.097	1
173.132	26
175.111	4
175.148	34
177.126	2
177.163	7
179.083	1
179.143	2
179.18	2
181.101	14
181.159	1
183.116	21
184.126	0
185.097	3
185.131	25
187.111	5
187.148	15
189.119	1
189.13	2
189.138	1
189.163	13
191.143	2
191.179	2
193.107	0
193.158	3
195.115	12
197.132	17
199.111	3
199.147	26
201.124	2
201.138	0
201.163	33
203.143	4
203.18	12
205.194	1
207.116	2
207.173	2
208.121	0
209.133	17
211.148	27
212.151	0
213.127	4
213.164	29
215.141	4
215.178	22
217.158	3
217.194	1
219.211	1
221.132	3
221.191	1
221.227	7
222.137	0
223.147	21
224.15	0
224.162	0
225.128	2
225.163	17
227.142	4
227.179	39
229.158	9
229.195	3
231.173	2
231.209	0
233.13	0
235.146	2
235.167	0
237.163	15
237.221	1
239.142	1
239.181	7
239.237	68
241.159	12
241.195	4
243.174	4
243.209	1
245.152	0
245.189	0
245.226	24
247.143	0
249.165	2
249.187	1
250.174	1
251.18	13
253.159	1
253.18	0
253.197	3
255.177	4
255.213	1
256.264	3
257.187	0
257.197	0
257.247	2
259.17	0
261.162	0
261.218	2
261.232	1
263.178	1
263.196	0
263.237	78
264.185	1
265.193	10
265.251	2
267.171	0
267.183	0
267.212	12
269.189	2
269.226	22
271.172	0
271.241	0
273.186	0
273.222	0
275.169	0
275.241	0
277.198	1
277.219	1
279.182	0
279.211	0
279.227	0
281.191	0
281.223	1
281.239	0
283.168	0
283.188	0
283.204	3
283.243	13
285.182	0
285.225	0
285.257	0
287.196	0
289.204	0
291.208	6
291.237	0
293.188	0
293.226	123
295.202	0
295.231	0
295.247	1
295.26	1
297.184	0
297.219	0
297.275	1
297.288	0
299.199	0
299.235	0
299.28	0
301.194	0
301.248	1
303.203	0
303.215	0
305.232	0
307.206	0
307.233	0
307.245	0
309.196	0
309.221	10
310.272	0
311.237	171
311.275	0
312.245	0
313.274	134
314.278	0
315.291	0
317.25	1
319.264	17
321.231	0
321.28	1
323.235	0
325.22	1
325.259	0
327.233	1
327.267	0
329.247	0
331.142	0
331.243	0
331.288	0
333.256	0
335.238	0
335.257	2
337.228	0
337.273	85
338.276	0
339.225	0
339.259	0
339.292	3
341.268	1
343.304	0
345.316	0
349.25	1
353.281	0
355.272	0
355.296	0
359.299	0
365.254	1
365.271	1
365.284	0
367.266	18
367.289	6
369.278	0
377.284	0
379.297	0
381.302	0
383.259	4
383.286	0
383.302	0
385.273	5
385.314	0
387.31	0
391.284	7
393.296	0
393.312	0
395.302	0
407.329	0
409.303	0
409.333	0
409.354	0
411.324	0
411.349	0
417.298	0
419.311	0
419.337	0
421.327	0
423.317	0
423.346	1
425.352	0
427.335	0
431.32	0
431.357	0
433.345	0
439.35	0
443.319	0
445.333	0
447.334	0
447.355	0
449.34	0
449.36	0
449.382	0
455.37	0
457.327	0
459.356	0
461.343	0
461.369	1
463.383	1
465.371	0
465.398	0
467.379	0
469.357	0
471.346	0
473.362	0
475.381	0
477.403	0
479.397	0
483.339	0
485.359	1
485.377	0
487.375	1
489.377	0
491.385	0
499.37	0
499.39	0
501.391	0
501.462	1
501.483	0
503.409	1
511.377	0
513.383	1
513.4	0
515.408	0
523.376	0
525.384	1
527.414	0
531.456	3
537.399	0
537.441	0
539.404	0
539.42	0
541.426	0
549.467	3
551.407	0
553.437	1
555.432	1
555.458	5
565.436	1
567.45	0
573.477	21
573.68	2
573.703	6
575.345	0
575.379	1
575.501	999
575.948	0
576.505	56
576.733	0
577.413	1
577.438	0
585.471	1
585.499	0
587.503	13
589.518	1
591.483	1
595.463	0
597.442	0
599.496	6
599.516	4
601.502	1
601.524	2
621.442	0
621.49	15
621.548	0
621.575	0
623.502	517
624.482	1
624.503	4
624.525	3
625.509	0
629.381	0
639.501	2
639.533	0
641.499	1
641.52	2
645.482	0
645.498	0
647.371	0
647.502	587
648.471	0
648.495	2
648.522	4
649.482	1
649.518	13
663.485	1
663.506	1
665.511	3
671.448	0
671.608	0
679.543	0
683.556	0
685.604	0
697.612	0
709.566	0
711.619	0
713.57	0
715.601	0
721.574	0
723.604	0
725.57	0
725.629	0
727.579	0
735.597	0
737.609	0
739.573	0
739.619	0
741.612	0
749.58	0
749.623	0
753.593	0
753.615	0
755.612	0
763.614	0
765.607	0
767.611	0
767.659	0
777.6	0
777.677	0
779.609	0
779.638	0
781.593	0
781.632	0
781.665	0
791.63	0
791.681	0
793.602	0
793.637	1
793.678	0
795.625	0
795.653	0
805.662	0
807.64	0
807.666	0
819.622	0
819.649	0
819.694	0
821.636	0
821.669	0
821.705	0
823.679	0
833.638	0
833.67	1
835.677	0
837.676	0
838.687	0
847.669	0
849.701	0
852.719	0
861.713	0
867.715	0
867.749	0
875.721	0
875.757	0
884.759	0
884.804	0
885.684	0
885.729	12
885.769	1
885.794	0
900.897	0
900.946	0
903.742	113
904.696	0
904.733	1
904.773	0
917.844	0
917.877	0
917.916	0
919.793	0
920.593	0
920.768	146
920.841	0
921.734	1
921.774	6
921.803	1
