Mass spectrum: TG 49:2; LC-ESI-QTOF; MS2
Name: TG 49:2
Class:  TAG
Formula: C52H96O6
Exact mass: 817.3340000000001
SMILES: CCCCCCCCCCCCCCCC(=O)OC(COC(=O)CCCCCCCCCCCCCC)COC(=O)CCCCCCCC\C=C/C=C\CCCCC
InChI: InChI=1S/C52H96O6/c1-4-7-10-13-16-19-22-25-26-28-30-33-36-39-42-45-51(54)57-48-49(47-56-50(53)44-41-38-35-32-29-24-21-18-15-12-9-6-3)58-52(55)46-43-40-37-34-31-27-23-20-17-14-11-8-5-2/h16,19,22,25,49H,4-15,17-18,20-21,23-24,26-48H2,1-3H3/b19-16-,25-22-
Instrument: AB Sciex TripleTOF 5600+ system (Q-TOF) equipped with a DuoSpray ion source
Instrument type: LC-ESI-QTOF
Ms type: MS2
Ion mode: POSITIVE
Collision energy: 45V
Column name: Acquity UPLC Peptide BEH C18 column (50*2.1 mm; 1.7 um; 130A)(Waters Co.,Milford, MA, USA)
Retention time: 14.31923
Precursor type: [M+NH4]+
Precursor m/z: 834.7555
Intensity: 2642
m/z	relative intensity
71.084	39
81.068	48
85.102	18
95.085	47
97.101	34
109.099	35
125.134	26
135.118	34
175.148	21
225.218	26
237.223	45
245.232	35
263.235	74
265.262	21
285.243	13
299.261	17
304.925	8
308.988	8
311.25	8
313.275	26
319.268	39
339.295	8
348.982	13
369.348	40
370.359	25
442.931	8
535.459	79
535.475	189
535.501	39
537.463	93
537.491	649
537.529	44
547.454	57
547.474	66
549.484	127
549.51	62
561.487	999
561.527	30
563.498	141
563.523	53
563.535	30
575.481	125
575.498	652
577.506	34
577.529	26
589.504	44
589.513	39
589.526	96
603.527	40
817.606	17
817.74	17
834.543	26
834.606	45
834.704	19
834.748	132
