Mass spectrum: AC 12:0; LC-ESI-QTOF; MS2
Name: AC 12:0
Class:  AcylCarnitine
Formula: C19H38NO4
Exact mass: 344.51599999999996
SMILES: CCCCCCCCCCCC(=O)OC(CC(O)=O)C[N+](C)(C)C
InChI: InChI=1S/C19H37NO4/c1-5-6-7-8-9-10-11-12-13-14-19(23)24-17(15-18(21)22)16-20(2,3)4/h17H,5-16H2,1-4H3/p+1
Instrument: AB Sciex TripleTOF 5600+ system (Q-TOF) equipped with a DuoSpray ion source
Instrument type: LC-ESI-QTOF
Ms type: MS2
Ion mode: POSITIVE
Collision energy: 45V
Column name: Acquity UPLC Peptide BEH C18 column (50*2.1 mm; 1.7 um; 130A)(Waters Co.,Milford, MA, USA)
Retention time: 4.433744
Precursor type: [M+H]+
Precursor m/z: 344.2795
Intensity: 672
m/z	relative intensity
77.037	108
85.027	999
98.982	119
132.045	22
144.097	44
151.052	48
152.062	232
153.07	93
166.076	22
168.056	213
169.063	18
171.079	33
175.009	29
175.019	29
178.076	37
179.084	44
180.082	22
187.03	56
197.083	26
202.079	26
206.069	26
207.074	22
215.025	138
224.079	26
225.083	33
226.079	22
227.089	48
228.094	123
229.098	41
233.036	382
241.231	22
251.047	318
261.034	52
285.207	29
291.059	7
309.058	7
327.077	621
327.096	86
344.285	63
