Mass spectrum: AC 20:1; LC-ESI-QTOF; MS2
Name: AC 20:1
Class:  AcylCarnitine
Formula: C27H52NO4
Exact mass: 454.71599999999995
SMILES: CCCCCCCC\C=C\CCCCCCCCCC(=O)OC(CC(O)=O)C[N+](C)(C)C
InChI: InChI=1S/C27H51NO4/c1-5-6-7-8-9-10-11-12-13-14-15-16-17-18-19-20-21-22-27(31)32-25(23-26(29)30)24-28(2,3)4/h12-13,25H,5-11,14-24H2,1-4H3/p+1/b13-12+
Instrument: AB Sciex TripleTOF 5600+ system (Q-TOF) equipped with a DuoSpray ion source
Instrument type: LC-ESI-QTOF
Ms type: MS2
Ion mode: POSITIVE
Collision energy: 45V
Column name: Acquity UPLC Peptide BEH C18 column (50*2.1 mm; 1.7 um; 130A)(Waters Co.,Milford, MA, USA)
Retention time: 6.791867
Precursor type: [M+H]+
Precursor m/z: 454.3851
Intensity: 1092
m/z	relative intensity
85.023	239
85.028	999
85.1	159
144.098	159
454.384	567
454.415	319
