Mass spectrum: TG 62:4; LC-ESI-QTOF; MS2
Name: TG 62:4
Class:  TAG
Formula: C65H118O6
Exact mass: 995.6529999999999
SMILES: CCCCCCCCCC\C=C/CCCCCCCCCC(=O)OCC(COC(=O)CCCCCCCC\C=C/C=C\CCCCC)OC(=O)CCCCCCCCC\C=C/CCCCCCCCCC
InChI: InChI=1S/C65H118O6/c1-4-7-10-13-16-19-22-25-28-30-32-34-37-40-43-46-49-52-55-58-64(67)70-61-62(60-69-63(66)57-54-51-48-45-42-39-36-27-24-21-18-15-12-9-6-3)71-65(68)59-56-53-50-47-44-41-38-35-33-31-29-26-23-20-17-14-11-8-5-2/h18,21,24,27,30-33,62H,4-17,19-20,22-23,25-26,28-29,34-61H2,1-3H3/b21-18-,27-24-,32-30-,33-31-
Instrument: AB Sciex TripleTOF 5600+ system (Q-TOF) equipped with a DuoSpray ion source
Instrument type: LC-ESI-QTOF
Ms type: MS2
Ion mode: POSITIVE
Collision energy: 45V
Column name: Acquity UPLC Peptide BEH C18 column (50*2.1 mm; 1.7 um; 130A)(Waters Co.,Milford, MA, USA)
Retention time: 16.24176
Precursor type: [M+NH4]+
Precursor m/z: 1012.922
Intensity: 475
m/z	relative intensity
81.069	13
83.083	6
95.084	14
109.1	12
121.1	10
161.133	6
163.146	12
175.148	6
186.992	10
189.159	6
226.983	18
245.225	18
247.239	6
263.222	9
263.226	10
263.231	10
263.24	40
265.247	20
269.0	18
291.265	6
293.282	18
337.291	6
339.287	10
348.984	12
349.336	12
349.35	8
359.369	7
367.32	13
377.357	8
377.376	36
390.992	7
405.367	7
423.386	13
430.988	9
433.013	6
451.402	18
451.417	6
472.986	6
512.992	8
573.484	17
573.496	6
573.503	6
575.52	6
599.487	22
599.506	18
599.517	8
601.518	830
602.505	12
603.522	29
603.535	8
603.542	7
627.518	10
629.537	173
629.549	92
629.556	87
629.566	111
629.702	7
630.541	8
631.555	16
657.543	13
657.55	38
657.558	41
657.565	44
657.583	135
657.619	8
659.606	9
676.998	10
685.581	49
685.589	64
685.612	363
685.663	8
686.61	19
687.607	14
687.615	12
687.622	12
687.629	12
687.637	10
687.648	8
711.622	16
713.579	8
713.613	107
713.62	143
713.642	725
713.696	8
713.703	8
714.641	30
715.627	116
715.652	999
715.676	179
715.71	29
716.659	10
717.681	13
741.66	13
741.682	14
897.798	8
906.746	8
930.734	13
977.852	8
977.926	9
995.862	47
995.877	33
995.886	40
995.901	75
995.944	9
1012.854	16
1012.886	89
1012.895	97
1012.913	321
1012.931	120
1012.94	101
1012.962	56
1013.905	13
1013.936	14
