Mass spectrum: TG 52:7; LC-ESI-QTOF; MS2
Name: TG 52:7
Class:  TAG
Formula: C55H92O6
Exact mass: 849.3349999999999
SMILES: CCCCCCCCCCCCCC(=O)OCC(COC(=O)CCC\C=C/C\C=C/C\C=C/C\C=C/C\C=C/CC)OC(=O)CCCCCCCC\C=C/C=C\CCCCC
InChI: InChI=1S/C55H92O6/c1-4-7-10-13-16-19-22-24-26-27-29-30-33-36-39-42-45-48-54(57)60-51-52(50-59-53(56)47-44-41-38-35-32-21-18-15-12-9-6-3)61-55(58)49-46-43-40-37-34-31-28-25-23-20-17-14-11-8-5-2/h7,10,16-17,19-20,23-26,29-30,36,39,52H,4-6,8-9,11-15,18,21-22,27-28,31-35,37-38,40-51H2,1-3H3/b10-7-,19-16-,20-17-,25-23-,26-24-,30-29-,39-36-
Instrument: AB Sciex TripleTOF 5600+ system (Q-TOF) equipped with a DuoSpray ion source
Instrument type: LC-ESI-QTOF
Ms type: MS2
Ion mode: POSITIVE
Collision energy: 45V
Column name: Acquity UPLC Peptide BEH C18 column (50*2.1 mm; 1.7 um; 130A)(Waters Co.,Milford, MA, USA)
Retention time: 13.76478
Precursor type: [M+NH4]+
Precursor m/z: 866.7202
Intensity: 100899
m/z	relative intensity
71.05	1
71.085	8
77.038	4
79.054	11
81.07	46
83.047	1
83.085	10
85.065	3
85.1	8
91.054	24
93.07	22
95.048	1
95.085	50
97.065	4
97.1	8
99.079	2
99.115	1
105.07	17
107.086	16
109.1	31
111.079	3
111.116	7
113.094	2
115.053	1
117.069	17
119.085	21
121.101	25
123.08	1
123.117	21
125.096	3
125.131	1
127.111	1
128.061	2
129.07	11
131.085	26
133.101	19
135.117	19
137.095	2
137.131	9
139.113	1
141.069	3
143.085	8
145.101	17
147.077	1
147.117	18
149.094	3
149.133	12
151.147	4
153.124	2
155.084	4
157.101	13
159.117	30
161.095	2
161.132	20
163.112	4
163.147	13
165.129	2
165.166	2
167.087	1
167.144	1
169.101	10
171.118	20
173.094	1
173.132	27
175.111	5
175.148	24
177.126	3
177.163	4
179.146	1
179.181	1
181.098	1
181.157	1
183.117	16
185.132	25
187.109	2
187.147	27
189.128	6
189.163	16
191.143	1
191.176	1
193.159	1
193.196	3
195.118	2
197.132	15
199.11	1
199.148	20
201.128	3
201.164	98
203.143	7
203.18	5
205.157	1
207.17	1
209.132	2
211.147	10
211.205	42
213.127	1
213.165	17
215.142	6
215.179	4
217.155	2
217.194	2
219.21	4
221.194	1
223.148	1
225.164	13
227.175	2
228.23	3
229.158	4
229.216	3
231.175	17
233.19	2
235.201	1
237.223	4
239.177	6
239.23	1
241.16	1
241.196	7
243.173	3
243.208	6
243.22	1
245.225	15
247.242	2
249.179	1
257.19	5
257.228	7
259.204	1
261.225	3
263.237	47
265.188	2
265.199	3
265.252	7
267.212	91
269.229	3
277.218	0
280.259	0
283.203	4
283.229	2
285.233	226
287.2	0
287.238	1
301.251	1
309.226	0
309.247	1
311.239	2
311.258	17
313.247	1
313.273	3
315.236	0
317.248	2
319.261	10
323.235	1
335.25	2
335.266	2
337.274	124
339.237	1
339.254	4
339.266	3
339.29	11
341.246	5
357.24	2
359.26	4
365.26	1
391.284	7
393.296	1
395.312	0
423.332	0
435.346	0
445.334	1
447.342	1
449.359	1
459.335	0
459.358	0
459.401	0
467.392	0
473.365	1
475.376	1
477.392	1
477.416	1
487.375	1
493.383	1
493.407	1
495.416	2
499.373	1
501.397	1
511.402	1
519.448	1
521.436	3
521.459	11
529.436	2
541.429	1
545.433	5
545.457	14
545.743	1
547.47	999
548.471	8
549.489	6
551.488	3
551.508	3
551.526	1
565.458	1
567.438	77
567.671	1
569.455	288
570.457	1
571.457	14
571.486	5
573.456	3
573.485	16
575.494	2
575.511	1
579.535	1
585.443	2
585.468	2
587.458	2
587.475	1
593.429	3
593.457	10
593.479	3
593.513	14
593.546	1
595.47	46
597.484	6
597.516	1
599.5	28
601.518	237
603.513	1
603.546	1
619.459	2
619.485	1
621.485	272
622.479	1
623.496	3
623.518	1
637.474	1
639.492	1
685.557	0
709.55	0
713.555	0
721.57	0
725.572	0
727.604	0
737.568	0
739.561	0
739.602	0
739.633	0
741.594	0
751.593	0
753.583	0
765.59	0
765.623	1
767.6	0
767.641	0
779.62	1
784.632	1
784.661	0
784.702	0
788.562	0
821.681	0
831.67	7
831.698	3
847.68	65
848.704	0
849.695	100
850.7	0
864.018	0
866.652	0
866.72	187
867.694	0
867.743	1
871.597	0
871.667	0
