Mass spectrum: TG 56:1; LC-ESI-QTOF; MS2
Name: TG 56:1
Class:  TAG
Formula: C59H112O6
Exact mass: 917.539
SMILES: CCCCCCCCCCCCCCCCCCCCCC(=O)OCC(COC(=O)CCCCCCCCCCCCCCC)OC(=O)CCCCCCCCC\C=C/CCCCCC
InChI: InChI=1S/C59H112O6/c1-4-7-10-13-16-19-22-25-27-28-29-30-32-34-37-40-43-46-49-52-58(61)64-55-56(54-63-57(60)51-48-45-42-39-36-33-24-21-18-15-12-9-6-3)65-59(62)53-50-47-44-41-38-35-31-26-23-20-17-14-11-8-5-2/h20,23,56H,4-19,21-22,24-55H2,1-3H3/b23-20-
Instrument: AB Sciex TripleTOF 5600+ system (Q-TOF) equipped with a DuoSpray ion source
Instrument type: LC-ESI-QTOF
Ms type: MS2
Ion mode: POSITIVE
Collision energy: 45V
Column name: Acquity UPLC Peptide BEH C18 column (50*2.1 mm; 1.7 um; 130A)(Waters Co.,Milford, MA, USA)
Retention time: 16.10081
Precursor type: [M+NH4]+
Precursor m/z: 934.8756
Intensity: 932
m/z	relative intensity
81.068	13
83.083	23
95.089	37
97.102	13
109.101	14
226.989	27
239.236	18
247.24	18
265.246	47
267.264	23
268.993	13
293.289	9
295.297	18
313.281	10
316.922	9
321.32	15
339.287	13
341.303	10
349.323	9
384.953	9
423.385	9
425.382	9
478.902	9
551.489	138
551.509	37
551.519	42
577.49	37
577.507	71
577.521	280
579.51	47
579.525	127
579.548	61
589.601	37
605.541	332
605.56	271
607.545	47
607.56	271
607.591	56
633.573	999
633.596	268
633.605	137
634.582	37
635.571	245
635.585	159
635.599	448
635.613	97
661.578	120
661.587	139
661.615	875
663.634	47
689.634	58
852.716	20
917.857	13
934.551	9
934.676	9
934.833	23
934.846	33
934.861	80
934.875	75
934.891	133
934.907	52
934.92	33
934.937	13
939.947	10
