Mass spectrum: ChE 22:4; LC-ESI-QTOF; MS2
Name: ChE 22:4
Class:  CE
Formula: C49H80O2
Exact mass: 701.177
SMILES: CCCCC\C=C/C\C=C/C\C=C/C\C=C/CCCCCC(=O)O[C@H]1CC[C@]2(C)[C@H]3CC[C@]4(C)[C@H](CC[C@H]4[C@@H]3CC=C2C1)[C@H](C)CCCC(C)C
InChI: InChI=1S/C49H80O2/c1-7-8-9-10-11-12-13-14-15-16-17-18-19-20-21-22-23-24-25-29-47(50)51-42-34-36-48(5)41(38-42)30-31-43-45-33-32-44(40(4)28-26-27-39(2)3)49(45,6)37-35-46(43)48/h11-12,14-15,17-18,20-21,30,39-40,42-46H,7-10,13,16,19,22-29,31-38H2,1-6H3/b12-11-,15-14-,18-17-,21-20-/t40-,42+,43+,44-,45+,46+,48+,49-/m1/s1
Instrument: AB Sciex TripleTOF 5600+ system (Q-TOF) equipped with a DuoSpray ion source
Instrument type: LC-ESI-QTOF
Ms type: MS2
Ion mode: POSITIVE
Collision energy: 45V
Column name: Acquity UPLC Peptide BEH C18 column (50*2.1 mm; 1.7 um; 130A)(Waters Co.,Milford, MA, USA)
Retention time: 14.69411
Precursor type: [M+NH4]+
Precursor m/z: 718.6502
Intensity: 2581
m/z	relative intensity
109.101	73
147.116	74
161.132	117
175.149	61
215.181	51
243.21	51
259.246	52
287.276	64
299.279	8
301.286	8
368.22	13
369.352	999
