Mass spectrum: TG 49:3; LC-ESI-QTOF; MS2
Name: TG 49:3
Class:  TAG
Formula: C52H94O6
Exact mass: 815.318
SMILES: CCCCCCCCC\C=C/CCCCCC(=O)OCC(COC(=O)CCCCC\C=C/CCCCCCCC)OC(=O)CCCCC\C=C/CCCCCCCC
InChI: InChI=1S/C52H94O6/c1-4-7-10-13-16-19-22-25-28-30-33-36-39-42-45-51(54)57-48-49(58-52(55)46-43-40-37-34-31-27-24-21-18-15-12-9-6-3)47-56-50(53)44-41-38-35-32-29-26-23-20-17-14-11-8-5-2/h26-31,49H,4-25,32-48H2,1-3H3/b29-26-,30-28-,31-27-
Instrument: AB Sciex TripleTOF 5600+ system (Q-TOF) equipped with a DuoSpray ion source
Instrument type: LC-ESI-QTOF
Ms type: MS2
Ion mode: POSITIVE
Collision energy: 45V
Column name: Acquity UPLC Peptide BEH C18 column (50*2.1 mm; 1.7 um; 130A)(Waters Co.,Milford, MA, USA)
Retention time: 14.06323
Precursor type: [M+NH4]+
Precursor m/z: 832.7434
Intensity: 397
m/z	relative intensity
79.053	86
81.067	86
95.084	173
109.102	124
263.237	202
299.058	86
299.254	66
301.115	57
313.272	115
319.278	57
325.283	57
339.283	144
533.453	173
535.445	234
535.466	999
535.507	320
537.49	124
547.473	260
559.466	320
559.489	234
561.47	439
561.493	589
561.513	291
573.467	205
573.489	647
575.505	260
577.5	144
577.527	317
587.495	291
714.95	66
832.61	86
832.755	176
