Mass spectrum: TG 53:3; LC-ESI-QTOF; MS2
Name: TG 53:3
Class:  TAG
Formula: C56H102O6
Exact mass: 871.426
SMILES: CCCCCCCCCCCCCCCC(=O)OCC(COC(=O)CCCCCCC\C=C/CCCCCCCCC)OC(=O)CCCCCCCC\C=C/C=C\CCCCC
InChI: InChI=1S/C56H102O6/c1-4-7-10-13-16-19-22-25-27-29-31-34-37-40-43-46-49-55(58)61-52-53(51-60-54(57)48-45-42-39-36-33-30-24-21-18-15-12-9-6-3)62-56(59)50-47-44-41-38-35-32-28-26-23-20-17-14-11-8-5-2/h17,20,23,26-27,29,53H,4-16,18-19,21-22,24-25,28,30-52H2,1-3H3/b20-17-,26-23-,29-27-
Instrument: AB Sciex TripleTOF 5600+ system (Q-TOF) equipped with a DuoSpray ion source
Instrument type: LC-ESI-QTOF
Ms type: MS2
Ion mode: POSITIVE
Collision energy: 45V
Column name: Acquity UPLC Peptide BEH C18 column (50*2.1 mm; 1.7 um; 130A)(Waters Co.,Milford, MA, USA)
Retention time: 14.67891
Precursor type: [M+NH4]+
Precursor m/z: 888.8002
Intensity: 4810
m/z	relative intensity
79.054	7
81.069	33
83.083	11
95.085	28
97.1	11
107.084	10
109.102	22
111.117	8
121.101	12
123.115	11
135.116	9
137.13	6
149.131	7
163.149	8
175.149	8
233.23	5
239.235	8
245.228	19
251.233	6
253.252	12
263.238	58
265.256	36
277.252	2
279.27	6
313.271	8
319.26	12
319.278	4
325.272	4
327.291	23
337.261	4
337.277	11
339.289	21
341.304	3
353.302	2
561.481	26
561.516	6
573.473	10
573.493	15
575.505	253
576.496	10
577.526	30
577.557	6
587.478	10
587.503	84
587.685	4
588.51	4
589.519	931
590.522	28
591.534	999
592.527	22
592.544	21
599.501	7
600.493	6
600.514	7
601.518	758
602.508	10
602.528	10
602.551	9
603.503	21
603.532	124
603.561	52
603.59	4
604.526	8
615.532	241
615.565	31
616.526	10
617.55	39
617.583	5
625.534	3
626.489	4
626.52	5
626.544	4
629.549	21
687.625	1
745.644	1
759.663	1
787.676	1
829.712	23
829.753	4
830.682	3
830.782	2
853.745	6
853.77	5
853.808	4
871.74	5
871.773	35
871.803	15
871.839	3
872.771	3
882.686	3
882.733	107
882.759	182
882.793	66
882.844	7
883.749	5
888.768	51
888.805	214
888.84	24
888.862	10
889.779	6
889.819	8
