Mass spectrum: TG 56:5; LC-ESI-QTOF; MS2
Name: TG 56:5
Class:  TAG
Formula: C59H104O6
Exact mass: 909.475
SMILES: CCCCCCCCCCCCCCCC(=O)OCC(COC(=O)CCCCCCCC\C=C/C\C=C/C\C=C/C\C=C/CC)OC(=O)CCCCCCCCC\C=C/CCCCCC
InChI: InChI=1S/C59H104O6/c1-4-7-10-13-16-19-22-25-27-28-29-30-32-34-37-40-43-46-49-52-58(61)64-55-56(54-63-57(60)51-48-45-42-39-36-33-24-21-18-15-12-9-6-3)65-59(62)53-50-47-44-41-38-35-31-26-23-20-17-14-11-8-5-2/h7,10,16,19-20,23,25,27,29-30,56H,4-6,8-9,11-15,17-18,21-22,24,26,28,31-55H2,1-3H3/b10-7-,19-16-,23-20-,27-25-,30-29-
Instrument: AB Sciex TripleTOF 5600+ system (Q-TOF) equipped with a DuoSpray ion source
Instrument type: LC-ESI-QTOF
Ms type: MS2
Ion mode: POSITIVE
Collision energy: 45V
Column name: Acquity UPLC Peptide BEH C18 column (50*2.1 mm; 1.7 um; 130A)(Waters Co.,Milford, MA, USA)
Retention time: 14.62437
Precursor type: [M+NH4]+
Precursor m/z: 926.817
Intensity: 2896
m/z	relative intensity
81.068	38
83.086	19
95.086	29
97.101	15
109.099	12
121.102	38
123.117	17
135.118	18
137.132	11
149.13	10
163.157	11
177.162	15
186.997	12
187.15	13
189.164	12
191.181	15
203.179	12
205.197	15
217.195	17
245.228	19
247.245	18
261.227	12
263.235	39
265.252	68
268.994	11
271.238	20
289.252	85
291.268	12
292.962	8
293.297	4
297.258	17
313.276	15
314.261	10
315.273	33
317.25	8
319.266	10
329.239	24
337.256	8
337.281	24
339.273	15
339.288	74
339.305	29
345.275	31
363.289	15
367.311	10
371.29	9
373.314	8
553.491	11
575.487	29
575.504	35
575.528	29
577.515	144
577.55	24
578.501	27
579.533	24
599.483	95
599.507	186
601.512	273
601.565	12
602.51	11
603.537	484
603.577	19
604.526	19
604.551	19
625.498	13
625.513	29
625.538	12
627.532	999
628.533	21
628.555	22
629.545	421
629.569	168
630.533	14
630.575	13
631.543	31
631.566	83
653.531	83
653.552	97
653.583	24
654.555	10
655.571	26
695.434	3
697.421	3
697.574	158
697.61	41
697.637	10
700.988	3
702.957	3
713.585	3
719.004	3
757.651	3
762.927	3
769.627	3
797.657	3
891.745	10
891.784	33
909.778	183
909.806	67
909.83	19
926.601	3
926.753	15
926.791	167
926.82	192
926.846	73
927.21	3
927.82	20
