Mass spectrum: TG 54:1; LC-ESI-QTOF; MS2
Name: TG 54:1
Class:  TAG
Formula: C57H108O6
Exact mass: 889.485
SMILES: CCCCCCCCCCCCCCCCCC(=O)OC(COC(=O)CCCCCCCCCCCCCCC)COC(=O)CCCCCCCCC\C=C/CCCCCCCC
InChI: InChI=1S/C57H108O6/c1-4-7-10-13-16-19-22-25-27-28-30-32-35-38-41-44-47-50-56(59)62-53-54(52-61-55(58)49-46-43-40-37-34-31-24-21-18-15-12-9-6-3)63-57(60)51-48-45-42-39-36-33-29-26-23-20-17-14-11-8-5-2/h25,27,54H,4-24,26,28-53H2,1-3H3/b27-25-
Instrument: AB Sciex TripleTOF 5600+ system (Q-TOF) equipped with a DuoSpray ion source
Instrument type: LC-ESI-QTOF
Ms type: MS2
Ion mode: POSITIVE
Collision energy: 45V
Column name: Acquity UPLC Peptide BEH C18 column (50*2.1 mm; 1.7 um; 130A)(Waters Co.,Milford, MA, USA)
Retention time: 15.60044
Precursor type: [M+NH4]+
Precursor m/z: 906.8451
Intensity: 31834
m/z	relative intensity
71.085	5
79.054	1
81.069	11
83.085	8
85.066	0
85.1	6
93.069	1
95.085	16
97.1	8
99.113	2
99.121	0
107.086	1
109.1	10
111.115	5
113.135	1
121.099	3
123.114	4
125.132	1
127.147	0
135.116	4
135.124	0
137.132	3
139.149	0
149.125	0
149.138	1
151.146	2
153.124	0
163.147	1
165.164	2
167.141	0
177.163	0
179.179	1
191.181	0
193.197	0
195.176	0
205.195	0
207.208	0
221.227	0
239.236	9
247.241	6
249.256	3
256.264	0
265.25	25
267.266	17
275.261	0
275.277	1
277.29	0
282.28	0
284.29	1
284.314	0
285.272	0
293.284	4
295.3	3
303.304	0
312.335	0
313.269	3
321.276	1
321.313	1
321.332	0
323.29	0
325.298	0
327.079	0
339.286	4
339.312	0
341.305	10
349.307	0
367.308	0
367.327	0
369.332	2
369.35	0
383.141	0
395.35	0
439.198	1
495.259	2
495.284	1
521.446	0
523.458	1
523.483	0
531.512	0
549.464	0
549.478	3
549.497	3
551.326	1
551.502	55
561.557	0
561.574	0
563.507	0
565.505	0
575.719	0
577.517	217
578.519	1
578.548	0
579.532	145
580.53	0
580.563	0
591.508	1
591.541	3
593.562	0
603.642	1
603.66	1
603.675	1
604.526	0
604.59	0
605.218	0
605.405	0
605.547	999
606.152	0
606.537	5
606.56	5
606.609	0
607.38	1
607.425	0
607.563	515
608.541	0
608.572	4
608.606	0
619.565	3
631.583	0
631.611	0
631.631	0
633.579	429
634.569	1
634.591	2
635.588	4
635.619	0
635.634	0
661.589	2
661.615	3
663.451	0
689.642	0
871.801	0
889.787	1
889.826	2
889.863	0
904.014	0
906.672	0
906.726	1
906.755	4
906.849	132
907.753	0
907.83	0
907.854	0
907.878	0
911.833	0
