Mass spectrum: ChE 22:6; LC-ESI-QTOF; MS2
Name: ChE 22:6
Class:  CE
Formula: C49H76O2
Exact mass: 697.145
SMILES: CC\C=C/C\C=C/C\C=C/C\C=C/C\C=C/C\C=C/CCC(=O)O[C@H]1CC[C@]2(C)[C@H]3CC[C@]4(C)[C@H](CC[C@H]4[C@@H]3CC=C2C1)[C@H](C)CCCC(C)C
InChI: InChI=1S/C49H76O2/c1-7-8-9-10-11-12-13-14-15-16-17-18-19-20-21-22-23-24-25-29-47(50)51-42-34-36-48(5)41(38-42)30-31-43-45-33-32-44(40(4)28-26-27-39(2)3)49(45,6)37-35-46(43)48/h8-9,11-12,14-15,17-18,20-21,23-24,30,39-40,42-46H,7,10,13,16,19,22,25-29,31-38H2,1-6H3/b9-8-,12-11-,15-14-,18-17-,21-20-,24-23-/t40-,42+,43+,44-,45+,46+,48+,49-/m1/s1
Instrument: AB Sciex TripleTOF 5600+ system (Q-TOF) equipped with a DuoSpray ion source
Instrument type: LC-ESI-QTOF
Ms type: MS2
Ion mode: POSITIVE
Collision energy: 45V
Column name: Acquity UPLC Peptide BEH C18 column (50*2.1 mm; 1.7 um; 130A)(Waters Co.,Milford, MA, USA)
Retention time: 14.30295
Precursor type: [M+NH4]+
Precursor m/z: 714.6172
Intensity: 53352
m/z	relative intensity
71.085	7
77.039	1
79.053	4
81.069	24
83.085	12
85.1	5
91.053	6
93.069	7
95.085	32
97.101	12
105.069	12
107.085	12
109.1	34
111.117	13
119.085	10
121.1	18
123.116	19
125.131	5
127.147	2
131.084	1
133.102	11
135.116	46
137.133	10
139.148	4
147.116	72
149.132	27
151.148	7
159.118	9
161.132	106
163.148	16
165.163	16
173.131	7
175.148	65
177.163	12
179.178	19
187.15	14
189.163	43
191.179	8
193.194	16
201.164	24
203.179	44
205.195	17
207.211	7
215.179	55
217.194	30
219.211	26
221.227	6
229.194	38
231.211	9
233.227	42
235.244	9
241.196	5
243.21	67
245.226	13
247.243	31
249.258	2
255.21	2
257.227	39
259.242	54
261.255	11
261.266	2
271.243	6
273.258	35
275.278	2
285.259	7
287.274	43
289.195	2
299.275	7
301.286	1
313.289	13
314.302	0
327.302	3
341.321	1
367.334	0
368.201	3
368.219	1
369.156	0
369.274	0
369.352	999
369.515	0
370.024	0
371.214	0
697.595	0
714.443	0
