Mass spectrum: TG 54:7; LC-ESI-QTOF; MS2
Name: TG 54:7
Class:  TAG
Formula: C57H96O6
Exact mass: 877.389
SMILES: CCCCC\C=C/C=C\CCCCCCCCC(=O)OCC(COC(=O)CCCCCCCCC\C=C/C=C\C=C/CC)OC(=O)CCCCCCCC\C=C/C=C\CCCCC
InChI: InChI=1S/C57H96O6/c1-4-7-10-13-16-19-22-25-28-31-34-37-40-43-46-49-55(58)61-52-54(63-57(60)51-48-45-42-39-36-33-30-27-24-21-18-15-12-9-6-3)53-62-56(59)50-47-44-41-38-35-32-29-26-23-20-17-14-11-8-5-2/h7,10,13,16-24,26-27,54H,4-6,8-9,11-12,14-15,25,28-53H2,1-3H3/b10-7-,16-13-,20-17-,21-18-,22-19-,26-23-,27-24-
Instrument: AB Sciex TripleTOF 5600+ system (Q-TOF) equipped with a DuoSpray ion source
Instrument type: LC-ESI-QTOF
Ms type: MS2
Ion mode: POSITIVE
Collision energy: 45V
Column name: Acquity UPLC Peptide BEH C18 column (50*2.1 mm; 1.7 um; 130A)(Waters Co.,Milford, MA, USA)
Retention time: 13.90029
Precursor type: [M+NH4]+
Precursor m/z: 894.7544
Intensity: 9704
m/z	relative intensity
79.052	11
81.068	24
83.084	7
91.052	9
93.069	13
95.085	27
97.065	4
97.101	4
105.067	6
107.085	9
109.1	15
119.088	6
121.1	20
123.115	13
131.085	4
133.1	9
135.118	14
137.133	6
145.1	6
147.116	10
149.132	9
159.116	11
161.131	15
163.146	13
163.155	5
171.116	4
173.134	9
175.149	15
177.165	8
185.132	6
187.151	7
189.165	6
199.144	4
201.165	5
215.181	4
233.225	4
241.193	4
243.209	18
245.225	20
259.198	6
259.213	4
261.22	63
263.236	66
265.251	6
277.219	2
285.224	3
287.239	4
289.255	1
299.236	1
303.255	2
311.259	6
313.246	3
313.263	3
315.229	3
317.245	26
319.255	7
319.269	8
321.284	2
333.239	4
335.259	14
335.271	3
337.273	43
339.282	5
339.306	1
343.264	2
369.279	2
387.32	1
397.339	1
413.364	1
445.338	1
487.376	2
489.392	2
503.42	2
505.451	4
521.445	3
523.427	3
523.444	5
523.458	8
525.45	2
527.424	2
539.416	2
541.461	6
541.477	3
543.482	4
547.469	37
547.507	5
548.466	3
549.481	4
571.449	3
571.49	2
573.486	23
575.485	7
575.503	8
595.436	4
595.467	53
595.505	3
595.608	2
595.64	3
597.486	999
597.545	6
598.461	4
598.499	14
599.502	750
600.485	3
600.514	10
600.543	2
601.504	16
601.526	10
613.486	4
615.486	5
615.502	4
617.506	3
621.463	2
621.497	5
623.481	17
623.504	30
623.526	15
649.525	3
651.541	2
751.598	1
753.589	1
765.622	3
767.641	1
769.623	1
779.624	3
781.65	1
793.637	3
807.624	1
807.664	3
812.697	1
821.677	1
823.674	1
859.668	3
859.698	9
859.726	12
859.756	7
859.79	1
877.727	217
877.781	9
877.848	1
878.73	2
878.754	4
891.964	1
894.734	93
894.763	159
894.815	8
895.702	1
895.744	3
895.766	4
