Mass spectrum: TG 46:2; LC-ESI-QTOF; MS2
Name: TG 46:2
Class:  TAG
Formula: C49H90O6
Exact mass: 775.253
SMILES: CCCCCCCCCCCCCCCC(=O)OC(COC(=O)CCCCCCC\C=C/CCCC)COC(=O)CCCCC\C=C/CCCCCCCC
InChI: InChI=1S/C49H90O6/c1-4-7-10-13-16-19-22-24-27-30-33-36-39-42-48(51)54-45-46(44-53-47(50)41-38-35-32-29-26-21-18-15-12-9-6-3)55-49(52)43-40-37-34-31-28-25-23-20-17-14-11-8-5-2/h15,18,24,27,46H,4-14,16-17,19-23,25-26,28-45H2,1-3H3/b18-15-,27-24-
Instrument: AB Sciex TripleTOF 5600+ system (Q-TOF) equipped with a DuoSpray ion source
Instrument type: LC-ESI-QTOF
Ms type: MS2
Ion mode: POSITIVE
Collision energy: 45V
Column name: Acquity UPLC Peptide BEH C18 column (50*2.1 mm; 1.7 um; 130A)(Waters Co.,Milford, MA, USA)
Retention time: 13.89443
Precursor type: [M+NH4]+
Precursor m/z: 792.7063
Intensity: 394
m/z	relative intensity
81.069	52
95.088	79
104.99	105
109.104	105
113.138	52
128.954	52
135.117	79
226.985	52
268.995	158
285.234	79
292.962	79
308.997	52
313.273	52
391.002	105
408.949	52
430.983	105
456.963	52
493.432	272
495.435	214
495.441	240
495.45	240
495.457	293
519.429	999
519.444	298
519.454	214
519.464	214
521.449	756
521.463	322
521.472	216
521.482	187
547.455	243
547.471	433
549.492	227
575.48	187
575.491	185
575.503	452
577.525	105
792.698	60
