Mass spectrum: TG 52:1; LC-ESI-QTOF; MS2
Name: TG 52:1
Class:  TAG
Formula: C55H104O6
Exact mass: 861.4309999999999
SMILES: CCCCCCCCCCCCCCCC(=O)OCC(COC(=O)CCCCCCCCC\C=C/CCCCCCCC)OC(=O)CCCCCCCCCCCCCCC
InChI: InChI=1S/C55H104O6/c1-4-7-10-13-16-19-22-25-26-27-28-31-33-36-39-42-45-48-54(57)60-51-52(61-55(58)49-46-43-40-37-34-30-24-21-18-15-12-9-6-3)50-59-53(56)47-44-41-38-35-32-29-23-20-17-14-11-8-5-2/h25-26,52H,4-24,27-51H2,1-3H3/b26-25-
Instrument: AB Sciex TripleTOF 5600+ system (Q-TOF) equipped with a DuoSpray ion source
Instrument type: LC-ESI-QTOF
Ms type: MS2
Ion mode: POSITIVE
Collision energy: 45V
Column name: Acquity UPLC Peptide BEH C18 column (50*2.1 mm; 1.7 um; 130A)(Waters Co.,Milford, MA, USA)
Retention time: 15.15079
Precursor type: [M+NH4]+
Precursor m/z: 878.8141
Intensity: 266759
m/z	relative intensity
71.051	0
71.085	23
77.039	1
79.054	4
81.07	40
83.085	34
85.064	2
85.1	24
91.053	1
93.07	6
95.085	58
97.065	1
97.101	30
99.08	1
99.116	6
107.084	4
109.101	39
111.077	1
111.116	16
113.097	1
113.131	3
121.101	16
123.117	25
125.095	1
125.131	6
127.11	1
127.148	2
135.116	16
137.131	13
139.111	1
139.148	2
141.128	0
141.164	0
149.131	8
151.147	8
153.127	3
153.162	1
155.143	0
155.178	1
163.146	5
165.163	10
167.141	2
167.18	1
169.193	0
177.165	2
179.178	4
181.158	0
183.172	0
191.179	2
193.195	2
195.174	0
205.191	1
207.213	0
209.188	0
211.202	0
219.209	0
221.224	6
239.236	88
240.239	0
247.242	25
249.257	6
256.262	4
257.248	0
265.252	95
266.261	0
267.268	46
268.273	0
275.268	1
275.285	0
282.272	0
282.285	0
284.294	3
285.269	0
293.267	0
293.285	8
295.263	0
297.274	0
303.259	0
311.256	0
313.272	24
314.276	0
321.264	0
321.279	3
323.284	0
323.295	0
325.312	0
339.289	14
340.284	0
341.303	22
341.322	2
349.304	0
349.32	0
367.288	0
367.318	0
367.33	0
369.328	0
475.988	0
503.464	0
503.481	0
523.465	1
531.496	0
549.448	0
549.481	7
549.507	1
551.5	290
552.505	6
552.537	1
553.48	0
553.512	4
563.499	0
575.663	0
575.704	3
575.728	3
575.757	0
577.359	0
577.397	1
577.515	975
577.951	0
578.522	44
579.332	0
579.417	1
579.53	941
580.311	0
580.538	42
581.52	2
581.565	1
591.503	0
591.526	2
591.544	1
593.582	0
603.607	0
603.632	2
603.651	4
603.675	3
603.707	0
604.562	0
605.411	1
605.546	999
606.174	0
606.557	58
619.554	0
633.548	1
633.573	7
633.604	0
689.624	0
843.762	1
843.792	0
854.731	0
854.817	0
854.862	0
861.76	2
861.796	6
862.78	0
876.028	0
876.056	0
876.086	0
876.119	0
878.272	0
878.435	0
878.648	0
878.813	95
878.867	2
879.773	0
879.815	3
