Mass spectrum: TG 54:9; LC-ESI-QTOF; MS2
Name: TG 54:9
Class:  TAG
Formula: C57H92O6
Exact mass: 873.357
SMILES: CCCCCCCC\C=C/CCCCCC(=O)OCC(COC(=O)CCC\C=C/C\C=C/C\C=C/C\C=C/C\C=C/CC)OC(=O)CCCCCCCCC\C=C/C=C\C=C/CC
InChI: InChI=1S/C57H92O6/c1-4-7-10-13-16-19-22-25-27-28-30-32-35-38-41-44-47-50-56(59)62-53-54(52-61-55(58)49-46-43-40-37-34-31-24-21-18-15-12-9-6-3)63-57(60)51-48-45-42-39-36-33-29-26-23-20-17-14-11-8-5-2/h7-8,10-11,14,16-17,19-20,23,25,27,30-32,34,38,41,54H,4-6,9,12-13,15,18,21-22,24,26,28-29,33,35-37,39-40,42-53H2,1-3H3/b10-7-,11-8-,17-14-,19-16-,23-20-,27-25-,32-30-,34-31-,41-38-
Instrument: AB Sciex TripleTOF 5600+ system (Q-TOF) equipped with a DuoSpray ion source
Instrument type: LC-ESI-QTOF
Ms type: MS2
Ion mode: POSITIVE
Collision energy: 45V
Column name: Acquity UPLC Peptide BEH C18 column (50*2.1 mm; 1.7 um; 130A)(Waters Co.,Milford, MA, USA)
Retention time: 13.65501
Precursor type: [M+NH4]+
Precursor m/z: 890.7204
Intensity: 19353
m/z	relative intensity
71.086	9
79.053	20
81.069	44
83.084	21
91.053	22
93.069	26
95.084	60
97.063	9
97.1	17
99.079	17
105.068	16
107.084	23
109.1	32
117.068	13
119.084	13
121.1	28
123.113	17
131.083	17
133.102	22
135.116	39
137.131	13
145.099	14
147.116	20
149.132	13
151.149	7
157.099	7
159.117	20
161.131	19
163.147	19
165.127	13
169.104	8
171.116	14
173.131	28
175.148	15
179.141	11
181.158	9
183.119	9
185.132	12
187.148	22
189.163	9
197.13	10
199.146	9
201.162	39
211.144	9
217.192	10
219.208	11
233.224	10
235.205	15
237.221	11
239.234	24
243.21	28
245.226	15
247.24	11
261.218	95
263.225	9
263.239	29
265.253	27
267.21	43
277.211	12
279.231	74
281.245	5
283.207	6
285.221	37
293.22	7
299.25	4
307.23	4
309.228	5
309.245	11
311.234	7
311.247	14
311.258	50
313.273	37
317.244	14
319.262	4
335.258	43
337.273	60
339.282	20
339.297	17
341.243	4
353.26	7
359.253	5
449.36	3
451.376	10
465.349	5
467.371	24
475.372	9
475.389	8
477.392	7
491.376	27
491.403	11
493.389	9
517.409	9
517.429	19
533.42	6
545.424	21
545.455	102
569.46	10
571.468	521
571.485	115
573.48	105
575.502	312
577.516	731
578.522	7
579.522	7
579.542	7
589.459	14
589.484	33
589.505	10
591.495	663
593.436	20
593.456	26
593.514	110
595.467	116
597.479	10
599.492	86
599.514	62
601.5	12
601.537	6
603.497	13
603.532	115
617.51	999
619.445	41
619.477	76
619.526	16
621.474	43
621.497	35
623.504	18
625.505	9
625.531	7
645.469	7
645.504	9
647.503	6
673.52	2
713.589	1
731.627	2
743.624	1
747.572	2
747.614	5
749.593	1
763.59	1
773.657	3
777.617	1
808.617	2
808.651	5
837.694	3
837.728	5
837.757	2
855.649	2
855.724	62
855.761	25
872.765	2
873.658	33
873.687	90
873.727	99
873.759	52
873.785	19
874.696	1
874.77	1
890.696	47
890.725	113
890.758	53
890.786	40
891.688	2
891.747	2
