Mass spectrum: TG 58:7; LC-ESI-QTOF; MS2
Name: TG 58:7
Class:  TAG
Formula: C61H104O6
Exact mass: 933.497
SMILES: CCCCCCCCCCCCCCCCCC(=O)OCC(COC(=O)CC\C=C/C\C=C/C\C=C/C\C=C/C\C=C/C\C=C/CC)OC(=O)CCCCCCCCC\C=C/CCCCCC
InChI: InChI=1S/C61H104O6/c1-4-7-10-13-16-19-22-25-28-29-30-31-34-36-39-42-45-48-51-54-60(63)66-57-58(67-61(64)55-52-49-46-43-40-37-33-27-24-21-18-15-12-9-6-3)56-65-59(62)53-50-47-44-41-38-35-32-26-23-20-17-14-11-8-5-2/h7,10,16,19,21,24-25,28,30-31,36,39,45,48,58H,4-6,8-9,11-15,17-18,20,22-23,26-27,29,32-35,37-38,40-44,46-47,49-57H2,1-3H3/b10-7-,19-16-,24-21-,28-25-,31-30-,39-36-,48-45-
Instrument: AB Sciex TripleTOF 5600+ system (Q-TOF) equipped with a DuoSpray ion source
Instrument type: LC-ESI-QTOF
Ms type: MS2
Ion mode: POSITIVE
Collision energy: 45V
Column name: Acquity UPLC Peptide BEH C18 column (50*2.1 mm; 1.7 um; 130A)(Waters Co.,Milford, MA, USA)
Retention time: 14.72701
Precursor type: [M+NH4]+
Precursor m/z: 950.8119
Intensity: 3106
m/z	relative intensity
81.069	11
83.085	8
85.101	6
91.053	5
93.069	8
95.084	19
97.099	12
105.069	4
107.083	4
109.101	12
119.084	5
121.099	14
123.115	5
131.084	5
133.1	7
135.118	7
145.103	4
149.133	7
159.117	9
161.132	7
163.151	5
169.104	7
171.118	11
173.131	9
175.147	8
181.104	6
183.117	5
185.13	9
187.147	5
189.125	4
195.119	6
197.13	8
199.149	10
201.164	13
203.142	4
209.13	7
211.147	11
213.162	8
215.181	11
223.148	9
225.163	8
227.181	20
229.16	5
237.164	5
239.232	8
241.158	5
247.237	6
251.177	7
265.193	4
265.251	26
267.211	6
267.269	16
269.221	7
283.237	5
283.253	1
291.205	2
293.228	45
293.279	5
294.233	2
295.246	1
311.237	60
312.241	3
313.271	11
327.231	2
339.289	32
341.302	23
341.316	7
367.258	3
367.279	4
367.325	8
383.266	3
385.271	3
393.309	3
395.308	3
551.501	3
577.497	2
579.502	4
579.526	24
579.548	16
580.531	49
580.555	18
599.499	3
603.531	6
603.667	2
605.548	999
606.54	17
606.565	14
623.49	50
623.509	21
623.526	15
623.555	2
624.47	3
629.552	2
649.519	190
650.509	3
650.543	3
651.534	160
652.517	9
652.539	14
652.56	9
667.539	3
669.542	3
677.535	25
677.566	22
677.603	3
678.563	1
829.72	1
830.726	4
855.723	1
857.724	1
863.709	1
867.718	2
867.762	2
868.702	7
868.733	19
868.759	11
868.831	2
869.738	1
893.754	6
908.735	2
908.783	4
915.789	6
925.791	10
925.837	7
933.762	16
933.788	34
933.824	18
934.809	3
950.752	4
950.807	240
950.845	84
950.906	3
951.784	5
951.815	7
951.86	3
