Mass spectrum: TG 48:4; LC-ESI-QTOF; MS2
Name: TG 48:4
Class:  TAG
Formula: C51H90O6
Exact mass: 799.275
SMILES: CCCCCCCCCCCC(=O)OCC(COC(=O)CCCCCCCCC\C=C/C=C\C=C/CC)OC(=O)CCCCCCCCC\C=C/CCCCCC
InChI: InChI=1S/C51H90O6/c1-4-7-10-13-16-19-21-23-25-27-29-32-35-38-41-44-50(53)56-47-48(46-55-49(52)43-40-37-34-31-18-15-12-9-6-3)57-51(54)45-42-39-36-33-30-28-26-24-22-20-17-14-11-8-5-2/h7,10,13,16,19-22,48H,4-6,8-9,11-12,14-15,17-18,23-47H2,1-3H3/b10-7-,16-13-,21-19-,22-20-
Instrument: AB Sciex TripleTOF 5600+ system (Q-TOF) equipped with a DuoSpray ion source
Instrument type: LC-ESI-QTOF
Ms type: MS2
Ion mode: POSITIVE
Collision energy: 45V
Column name: Acquity UPLC Peptide BEH C18 column (50*2.1 mm; 1.7 um; 130A)(Waters Co.,Milford, MA, USA)
Retention time: 13.72909
Precursor type: [M+NH4]+
Precursor m/z: 816.7048
Intensity: 72679
m/z	relative intensity
71.085	9
77.039	2
79.052	13
81.069	46
83.085	25
85.1	14
91.054	9
93.068	20
95.085	69
97.062	4
97.1	16
99.079	5
105.069	8
107.085	16
109.1	46
111.08	4
111.115	9
113.094	3
119.085	9
121.1	36
123.116	29
125.094	4
131.086	3
133.1	12
135.117	26
137.131	12
145.102	4
147.118	11
149.131	17
151.109	2
151.146	4
153.126	3
159.114	6
161.133	15
163.149	18
165.16	5
167.143	3
173.133	11
175.145	16
177.161	8
181.159	8
183.172	31
187.144	4
189.163	11
191.181	3
201.165	3
207.173	18
209.187	7
211.205	20
215.179	3
217.194	7
219.21	12
233.223	3
235.203	10
237.22	22
239.232	4
243.211	20
245.222	22
247.242	6
257.209	19
261.219	83
263.235	75
265.253	12
271.206	1
275.2	1
275.235	1
277.218	1
283.224	6
283.244	1
285.242	17
289.251	2
293.25	1
299.236	3
301.251	1
309.242	3
311.258	20
313.273	28
317.245	27
319.26	13
321.279	1
333.235	2
335.256	7
337.272	55
339.289	16
413.37	1
443.383	1
445.402	1
463.385	1
469.394	1
471.426	2
475.37	1
479.398	3
479.412	3
479.438	1
481.398	2
481.418	6
481.445	3
489.368	1
489.402	3
491.407	3
491.426	1
493.42	6
493.439	2
497.413	1
497.437	4
499.431	1
503.398	1
505.408	3
505.427	5
507.436	4
507.455	1
515.435	1
517.424	167
517.831	2
519.438	999
519.811	1
519.849	1
520.433	1
521.453	451
523.466	2
525.442	1
525.461	3
525.489	1
533.466	2
543.437	100
543.484	2
543.747	1
545.455	390
547.468	209
549.486	13
561.489	4
563.485	1
569.694	1
571.47	417
573.486	208
575.499	99
589.486	2
599.5	571
601.515	115
603.502	2
603.518	2
603.542	4
617.51	2
627.517	1
627.531	2
627.563	1
629.545	3
673.553	1
675.551	0
687.562	1
687.606	1
701.565	1
701.638	0
715.608	1
743.621	1
778.7	1
781.642	8
781.668	24
797.179	0
799.64	9
799.676	112
814.12	0
816.7	116
816.727	50
