Mass spectrum: TG 54:5; LC-ESI-QTOF; MS2
Name: TG 54:5
Class:  TAG
Formula: C57H100O6
Exact mass: 881.4209999999999
SMILES: CCCCCCCCCCCCCCCC(=O)OCC(COC(=O)CCCCC\C=C/C\C=C/C\C=C/C\C=C/C\C=C/CC)OC(=O)CCCCCCCCCCCCCCC
InChI: InChI=1S/C57H100O6/c1-4-7-10-13-16-19-22-25-26-27-28-29-30-33-35-38-41-44-47-50-56(59)62-53-54(63-57(60)51-48-45-42-39-36-32-24-21-18-15-12-9-6-3)52-61-55(58)49-46-43-40-37-34-31-23-20-17-14-11-8-5-2/h7,10,16,19,25-26,28-29,33,35,54H,4-6,8-9,11-15,17-18,20-24,27,30-32,34,36-53H2,1-3H3/b10-7-,19-16-,26-25-,29-28-,35-33-
Instrument: AB Sciex TripleTOF 5600+ system (Q-TOF) equipped with a DuoSpray ion source
Instrument type: LC-ESI-QTOF
Ms type: MS2
Ion mode: POSITIVE
Collision energy: 45V
Column name: Acquity UPLC Peptide BEH C18 column (50*2.1 mm; 1.7 um; 130A)(Waters Co.,Milford, MA, USA)
Retention time: 14.48159
Precursor type: [M+NH4]+
Precursor m/z: 898.7832
Intensity: 21908
m/z	relative intensity
71.084	4
77.037	2
79.053	6
81.069	13
83.084	10
85.064	2
85.101	3
91.053	11
93.069	6
95.084	18
97.101	8
105.07	10
107.083	5
109.099	12
111.116	3
117.068	4
119.084	12
121.1	10
123.116	6
125.097	3
129.069	2
131.084	7
133.099	11
135.079	1
135.116	8
137.132	3
143.084	2
145.1	5
147.116	4
149.132	5
151.147	3
157.102	8
159.114	3
161.13	6
163.113	2
163.149	4
165.164	2
171.116	12
173.133	6
175.112	3
175.147	11
177.161	4
185.132	11
187.148	7
189.125	3
189.163	15
191.179	5
199.148	10
201.162	8
203.137	1
203.149	2
203.179	80
213.162	6
215.179	1
221.225	2
227.179	4
239.235	22
241.198	3
243.216	2
245.225	6
247.239	8
259.206	5
259.244	8
265.252	29
269.227	90
271.238	1
282.28	0
285.223	1
285.244	0
286.351	1
287.237	103
288.237	1
289.246	1
295.25	0
297.281	1
311.257	2
312.297	0
313.274	105
314.277	1
321.286	1
325.261	0
337.284	1
339.29	114
340.284	1
340.31	0
341.268	0
341.307	1
343.254	2
343.271	3
359.257	2
361.275	2
367.283	4
393.295	4
393.317	1
435.349	1
461.364	1
463.393	0
475.382	0
487.38	1
489.446	0
501.384	0
507.463	0
515.395	0
525.47	1
533.472	2
533.507	0
541.448	0
551.473	2
551.49	2
551.505	2
551.528	0
575.494	2
575.51	3
575.699	1
575.723	1
575.757	0
577.247	0
577.519	999
578.495	4
578.52	24
578.54	9
579.524	0
597.495	1
599.503	184
600.485	1
600.515	6
601.534	1
603.533	0
615.496	1
617.497	0
617.515	0
617.538	1
623.573	1
625.518	238
626.524	6
626.562	0
627.515	1
627.548	0
643.529	1
671.561	0
743.615	0
757.635	0
783.65	0
797.658	0
797.71	0
845.728	0
863.682	0
863.727	2
863.75	3
863.794	1
864.742	0
879.002	0
880.747	0
881.763	53
882.739	0
882.766	1
895.994	0
898.659	0
898.696	0
898.785	156
899.733	0
899.796	5
899.845	1
