Mass spectrum: TG 60:12; LC-ESI-QTOF; MS2
Name: TG 60:12
Class:  TAG
Formula: C63H98O6
Exact mass: 951.471
SMILES: CCCCCC\C=C/CCCCCCCCCC(=O)OCC(COC(=O)CC\C=C/C\C=C/C\C=C/C\C=C/C\C=C/C\C=C/CC)OC(=O)CCC\C=C/C\C=C/C\C=C/C\C=C/C\C=C/CC
InChI: InChI=1S/C63H98O6/c1-4-7-10-13-16-19-22-25-28-30-31-33-35-38-41-44-47-50-53-56-62(65)68-59-60(58-67-61(64)55-52-49-46-43-40-37-34-27-24-21-18-15-12-9-6-3)69-63(66)57-54-51-48-45-42-39-36-32-29-26-23-20-17-14-11-8-5-2/h7-8,10-11,16-17,19-21,24-26,28-29,31,33,36,38-39,41,45,47-48,50,60H,4-6,9,12-15,18,22-23,27,30,32,34-35,37,40,42-44,46,49,51-59H2,1-3H3/b10-7-,11-8-,19-16-,20-17-,24-21-,28-25-,29-26-,33-31-,39-36-,41-38-,48-45-,50-47-
Instrument: AB Sciex TripleTOF 5600+ system (Q-TOF) equipped with a DuoSpray ion source
Instrument type: LC-ESI-QTOF
Ms type: MS2
Ion mode: POSITIVE
Collision energy: 45V
Column name: Acquity UPLC Peptide BEH C18 column (50*2.1 mm; 1.7 um; 130A)(Waters Co.,Milford, MA, USA)
Retention time: 13.92212
Precursor type: [M+NH4]+
Precursor m/z: 968.7657
Intensity: 288
m/z	relative intensity
91.054	145
105.07	119
117.069	79
119.084	82
133.102	92
161.127	55
167.08	119
175.146	60
177.162	66
185.128	79
189.159	55
199.145	66
203.178	238
203.194	79
226.985	79
269.226	224
285.222	52
287.222	52
287.24	119
311.238	26
337.265	66
343.259	26
359.262	26
361.262	132
361.276	277
385.286	26
391.292	39
432.987	26
471.368	26
483.343	26
547.478	26
571.478	29
621.476	26
623.502	185
628.9	26
636.995	39
647.492	999
647.52	375
649.518	66
665.514	26
671.497	92
824.683	92
849.674	26
873.669	39
873.718	132
886.662	39
900.706	66
933.747	26
951.754	185
968.565	39
968.676	89
968.712	132
968.74	240
968.769	359
968.796	132
968.834	52
