Mass spectrum: TG 56:5; LC-ESI-QTOF; MS2
Name: TG 56:5
Class:  TAG
Formula: C59H104O6
Exact mass: 909.475
SMILES: CCCCCCCC\C=C/C\C=C/C\C=C/CCCC(=O)OCC(COC(=O)CCCCCCCCC\C=C/CCCCCC)OC(=O)CCCCCCCCC\C=C/CCCCCC
InChI: InChI=1S/C59H104O6/c1-4-7-10-13-16-19-22-25-28-29-32-34-37-40-43-46-49-52-58(61)64-55-56(65-59(62)53-50-47-44-41-38-35-31-27-24-21-18-15-12-9-6-3)54-63-57(60)51-48-45-42-39-36-33-30-26-23-20-17-14-11-8-5-2/h20-21,23-25,28,32,34,40,43,56H,4-19,22,26-27,29-31,33,35-39,41-42,44-55H2,1-3H3/b23-20-,24-21-,28-25-,34-32-,43-40-
Instrument: AB Sciex TripleTOF 5600+ system (Q-TOF) equipped with a DuoSpray ion source
Instrument type: LC-ESI-QTOF
Ms type: MS2
Ion mode: POSITIVE
Collision energy: 45V
Column name: Acquity UPLC Peptide BEH C18 column (50*2.1 mm; 1.7 um; 130A)(Waters Co.,Milford, MA, USA)
Retention time: 14.32458
Precursor type: [M+NH4]+
Precursor m/z: 926.8134
Intensity: 4142
m/z	relative intensity
81.069	32
151.14	19
175.144	23
227.177	17
246.231	32
263.24	32
265.247	28
266.252	32
290.251	34
293.277	10
294.216	17
312.233	10
313.266	10
315.273	12
320.279	10
337.275	21
338.274	21
339.272	16
340.29	21
345.282	10
351.242	10
367.298	10
393.31	10
551.503	60
559.468	54
575.49	97
577.516	98
579.527	98
580.511	83
580.538	33
581.534	54
583.48	48
597.498	41
598.491	59
599.488	93
599.517	38
600.482	38
600.512	133
601.506	143
601.545	43
602.528	109
603.515	90
623.496	126
624.506	59
625.531	38
626.513	99
626.552	32
627.51	109
627.534	94
628.519	105
628.54	227
629.542	432
630.554	50
631.536	33
671.497	24
839.652	78
839.669	163
839.683	266
839.709	999
839.736	281
839.763	56
839.779	16
840.706	38
840.722	32
843.745	10
844.688	23
909.727	32
909.768	94
909.798	111
921.71	165
921.737	55
921.778	56
926.694	138
926.724	93
926.775	262
926.791	296
926.805	257
926.817	218
926.834	183
926.863	44
927.705	33
927.725	321
927.746	171
927.761	99
