Mass spectrum: TG 49:2; LC-ESI-QTOF; MS2
Name: TG 49:2
Class:  TAG
Formula: C52H96O6
Exact mass: 817.3340000000001
SMILES: CCCCCCCCCCCCCCCC(=O)OC(COC(=O)CCCCCCCCCCCCCC)COC(=O)CCCCCCCC\C=C/C=C\CCCCC
InChI: InChI=1S/C52H96O6/c1-4-7-10-13-16-19-22-25-26-28-30-33-36-39-42-45-51(54)57-48-49(47-56-50(53)44-41-38-35-32-29-24-21-18-15-12-9-6-3)58-52(55)46-43-40-37-34-31-27-23-20-17-14-11-8-5-2/h16,19,22,25,49H,4-15,17-18,20-21,23-24,26-48H2,1-3H3/b19-16-,25-22-
Instrument: AB Sciex TripleTOF 5600+ system (Q-TOF) equipped with a DuoSpray ion source
Instrument type: LC-ESI-QTOF
Ms type: MS2
Ion mode: POSITIVE
Collision energy: 45V
Column name: Acquity UPLC Peptide BEH C18 column (50*2.1 mm; 1.7 um; 130A)(Waters Co.,Milford, MA, USA)
Retention time: 14.30322
Precursor type: [M+NH4]+
Precursor m/z: 834.7559
Intensity: 7248
m/z	relative intensity
71.084	16
81.07	37
83.083	12
85.1	25
93.068	12
95.085	34
97.097	14
109.099	34
121.1	14
123.117	15
151.147	9
163.149	10
225.226	29
239.235	24
239.246	15
245.226	17
263.239	28
283.26	3
285.237	2
299.256	18
311.265	2
313.269	16
313.3	3
319.266	17
323.29	2
335.255	3
337.277	6
339.286	6
521.459	7
523.471	12
535.474	75
535.801	6
537.49	755
547.449	11
547.481	51
549.489	129
549.532	7
551.49	9
551.508	22
559.715	5
561.49	999
563.508	151
575.504	861
575.575	5
577.506	22
577.527	37
577.551	8
579.541	7
589.499	26
589.524	66
589.542	24
603.547	10
799.728	5
817.596	5
817.744	13
822.783	2
834.595	11
834.65	8
834.744	49
834.768	59
834.791	29
