Mass spectrum: TG 56:1; LC-ESI-QTOF; MS2
Name: TG 56:1
Class:  TAG
Formula: C59H112O6
Exact mass: 917.539
SMILES: CCCCCCCCCCCCCCCCCC(=O)OC(COC(=O)CCCCCCCCCCCCCCC)COC(=O)CCCCCCCCC\C=C/CCCCCCCCCC
InChI: InChI=1S/C59H112O6/c1-4-7-10-13-16-19-22-25-27-28-29-30-32-34-37-40-43-46-49-52-58(61)64-55-56(54-63-57(60)51-48-45-42-39-36-33-24-21-18-15-12-9-6-3)65-59(62)53-50-47-44-41-38-35-31-26-23-20-17-14-11-8-5-2/h28-29,56H,4-27,30-55H2,1-3H3/b29-28-
Instrument: AB Sciex TripleTOF 5600+ system (Q-TOF) equipped with a DuoSpray ion source
Instrument type: LC-ESI-QTOF
Ms type: MS2
Ion mode: POSITIVE
Collision energy: 45V
Column name: Acquity UPLC Peptide BEH C18 column (50*2.1 mm; 1.7 um; 130A)(Waters Co.,Milford, MA, USA)
Retention time: 16.11143
Precursor type: [M+NH4]+
Precursor m/z: 934.8795
Intensity: 806
m/z	relative intensity
83.088	56
95.085	26
123.12	26
186.994	65
226.994	52
239.237	65
265.257	92
269.001	105
292.948	26
295.289	39
344.976	26
374.968	26
390.992	39
406.976	26
549.484	65
551.497	392
577.495	216
577.526	296
579.513	118
579.536	160
579.555	79
605.513	106
605.547	469
607.538	92
607.568	254
629.546	144
633.568	832
633.589	496
633.613	216
635.595	537
635.616	242
657.574	65
661.596	645
661.613	686
661.636	214
698.976	26
766.909	26
913.768	94
913.798	999
913.819	689
913.844	376
913.875	80
914.826	39
917.862	26
934.822	401
934.879	342
