Mass spectrum: TG 58:6; LC-ESI-QTOF; MS2
Name: TG 58:6
Class:  TAG
Formula: C61H106O6
Exact mass: 935.5129999999999
SMILES: CCCCCCCCCCCCCCCCCC(=O)OCC(COC(=O)CCCCC\C=C/C\C=C/C\C=C/C\C=C/C\C=C/CC)OC(=O)CCCCCCCCC\C=C/CCCCCC
InChI: InChI=1S/C61H106O6/c1-4-7-10-13-16-19-22-25-28-29-30-31-34-36-39-42-45-48-51-54-60(63)66-57-58(67-61(64)55-52-49-46-43-40-37-33-27-24-21-18-15-12-9-6-3)56-65-59(62)53-50-47-44-41-38-35-32-26-23-20-17-14-11-8-5-2/h7,10,16,19,21,24-25,28,30-31,36,39,58H,4-6,8-9,11-15,17-18,20,22-23,26-27,29,32-35,37-38,40-57H2,1-3H3/b10-7-,19-16-,24-21-,28-25-,31-30-,39-36-
Instrument: AB Sciex TripleTOF 5600+ system (Q-TOF) equipped with a DuoSpray ion source
Instrument type: LC-ESI-QTOF
Ms type: MS2
Ion mode: POSITIVE
Collision energy: 45V
Column name: Acquity UPLC Peptide BEH C18 column (50*2.1 mm; 1.7 um; 130A)(Waters Co.,Milford, MA, USA)
Retention time: 14.84436
Precursor type: [M+NH4]+
Precursor m/z: 952.8305
Intensity: 6213
m/z	relative intensity
81.071	25
83.086	13
91.054	13
93.069	15
95.085	33
97.1	19
107.087	14
109.102	23
119.084	16
121.1	26
131.082	19
133.102	19
145.1	13
159.116	28
161.134	18
171.115	14
173.132	37
175.147	20
185.131	22
187.145	23
199.145	14
201.162	83
213.168	17
215.176	32
215.188	18
227.182	15
229.194	18
231.174	13
247.242	14
265.252	52
267.27	13
271.214	4
285.219	6
285.263	7
287.235	5
293.216	6
293.292	4
295.241	70
295.264	7
297.25	7
311.246	12
313.252	221
315.267	9
323.278	4
337.268	5
339.288	60
341.304	96
351.261	6
367.321	11
369.271	29
369.294	11
385.269	11
385.291	6
387.287	13
503.406	5
515.415	5
517.416	5
527.408	5
529.421	9
531.444	5
543.443	7
555.434	5
557.46	6
559.486	5
577.506	24
577.541	5
579.505	7
595.506	5
597.479	6
603.531	24
603.654	8
605.547	999
606.532	8
606.562	10
625.511	61
625.539	23
629.535	10
629.558	11
631.535	7
631.547	10
631.565	25
633.577	11
651.532	780
652.529	9
653.548	757
654.544	8
655.543	12
655.583	9
669.556	8
671.554	5
679.562	92
679.616	4
681.586	8
695.559	2
727.661	2
823.674	2
853.734	3
865.754	3
867.746	3
870.718	4
870.732	10
870.766	19
881.751	4
917.779	14
917.831	7
934.788	23
934.842	4
935.766	31
935.795	241
935.836	64
936.812	9
944.764	4
952.758	15
952.802	183
952.835	464
953.818	20
953.872	5
