Mass spectrum: BMP 40:6; LC-ESI-QTOF; MS2
Name: BMP 40:6
Class:  BMP
Formula: C46H79O10P
Exact mass: 823.1039999999999
SMILES: CCCCCCCC\C=C/CCCCCCCC(=O)OC(CO)COP(O)(=O)OCC(CO)OC(=O)CCCCC\C=C/C\C=C/C\C=C/C\C=C/C\C=C/CC
InChI: InChI=1S/C46H79O10P/c1-3-5-7-9-11-13-15-17-19-20-21-22-24-26-28-30-32-34-36-38-46(50)56-44(40-48)42-54-57(51,52)53-41-43(39-47)55-45(49)37-35-33-31-29-27-25-23-18-16-14-12-10-8-6-4-2/h5,7,11,13,17-19,21-23,26,28,43-44,47-48H,3-4,6,8-10,12,14-16,20,24-25,27,29-42H2,1-2H3,(H,51,52)/b7-5-,13-11-,19-17-,22-21-,23-18-,28-26-
Instrument: AB Sciex TripleTOF 5600+ system (Q-TOF) equipped with a DuoSpray ion source
Instrument type: LC-ESI-QTOF
Ms type: MS2
Ion mode: POSITIVE
Collision energy: 45V
Column name: Acquity UPLC Peptide BEH C18 column (50*2.1 mm; 1.7 um; 130A)(Waters Co.,Milford, MA, USA)
Retention time: 8.176518
Precursor type: [M+NH4]+
Precursor m/z: 840.5735
Intensity: 630
m/z	relative intensity
93.071	56
119.086	56
184.063	56
326.273	56
339.271	227
339.279	429
339.284	747
339.289	429
339.295	629
339.302	314
387.27	171
387.275	140
387.281	286
387.286	432
387.297	999
549.475	398
549.501	143
549.518	84
549.531	56
655.583	168
666.499	56
840.472	176
