Mass spectrum: TG 58:12; LC-ESI-QTOF; MS2
Name: TG 58:12
Class:  TAG
Formula: C61H94O6
Exact mass: 923.4169999999999
SMILES: CCCCC\C=C/C=C\CCCCCCCCC(=O)OCC(COC(=O)CCC\C=C/C\C=C/C\C=C/C\C=C/C\C=C/CC)OC(=O)CCC\C=C/C\C=C/C\C=C/C\C=C/C\C=C/CC
InChI: InChI=1S/C61H94O6/c1-4-7-10-13-16-19-22-25-28-30-33-36-39-42-45-48-51-54-60(63)66-57-58(56-65-59(62)53-50-47-44-41-38-35-32-27-24-21-18-15-12-9-6-3)67-61(64)55-52-49-46-43-40-37-34-31-29-26-23-20-17-14-11-8-5-2/h7-8,10-11,16-21,24-29,33-34,36-37,42-43,45-46,58H,4-6,9,12-15,22-23,30-32,35,38-41,44,47-57H2,1-3H3/b10-7-,11-8-,19-16-,20-17-,21-18-,27-24-,28-25-,29-26-,36-33-,37-34-,45-42-,46-43-
Instrument: AB Sciex TripleTOF 5600+ system (Q-TOF) equipped with a DuoSpray ion source
Instrument type: LC-ESI-QTOF
Ms type: MS2
Ion mode: POSITIVE
Collision energy: 45V
Column name: Acquity UPLC Peptide BEH C18 column (50*2.1 mm; 1.7 um; 130A)(Waters Co.,Milford, MA, USA)
Retention time: 13.65764
Precursor type: [M+NH4]+
Precursor m/z: 940.7386
Intensity: 4150
m/z	relative intensity
79.054	19
81.068	28
91.055	23
93.069	18
95.085	35
105.071	25
107.086	21
109.102	19
117.068	29
119.085	18
121.1	19
123.117	16
129.071	13
131.085	34
133.101	16
135.117	20
143.084	13
145.1	30
149.133	11
157.099	13
159.115	41
161.131	21
169.102	17
171.117	31
173.129	30
173.142	16
175.148	29
183.118	13
185.124	11
185.134	25
185.144	10
187.148	35
189.16	11
197.13	32
199.148	29
201.162	127
203.143	14
211.151	16
225.163	22
245.224	10
257.226	10
263.231	13
263.241	18
265.193	11
267.211	108
281.191	4
283.203	12
283.233	3
285.22	80
287.237	6
311.266	3
319.262	8
335.253	6
335.28	3
336.23	3
337.223	4
337.273	350
338.277	6
339.291	7
341.247	11
357.246	6
359.256	50
359.274	15
379.274	3
390.989	3
391.271	7
391.297	13
403.318	4
459.355	4
499.354	4
529.446	6
547.443	5
569.439	3
595.474	9
619.467	9
619.503	3
619.557	4
621.483	999
621.51	221
621.552	5
622.475	8
622.494	38
639.497	15
643.457	41
643.475	63
643.497	26
643.545	3
645.489	6
647.449	10
703.561	1
733.551	2
743.53	1
773.595	1
787.595	2
821.633	2
825.661	1
827.635	1
839.628	1
841.612	1
853.653	1
858.624	1
858.693	3
905.692	4
905.744	3
923.683	24
923.715	49
924.718	3
937.784	2
940.743	353
940.802	15
941.737	15
941.822	2
