Mass spectrum: TG 52:5; LC-ESI-QTOF; MS2
Name: TG 52:5
Class:  TAG
Formula: C55H96O6
Exact mass: 853.367
SMILES: CCCCCCCCCCCCCCCC(=O)OCC(COC(=O)CCCCCCCCC\C=C/C=C\C=C/CC)OC(=O)CCCCCCCC\C=C/C=C\CCCCC
InChI: InChI=1S/C55H96O6/c1-4-7-10-13-16-19-22-25-27-30-33-36-39-42-45-48-54(57)60-51-52(50-59-53(56)47-44-41-38-35-32-29-24-21-18-15-12-9-6-3)61-55(58)49-46-43-40-37-34-31-28-26-23-20-17-14-11-8-5-2/h7,10,13,16-17,19-20,22-23,26,52H,4-6,8-9,11-12,14-15,18,21,24-25,27-51H2,1-3H3/b10-7-,16-13-,20-17-,22-19-,26-23-
Instrument: AB Sciex TripleTOF 5600+ system (Q-TOF) equipped with a DuoSpray ion source
Instrument type: LC-ESI-QTOF
Ms type: MS2
Ion mode: POSITIVE
Collision energy: 45V
Column name: Acquity UPLC Peptide BEH C18 column (50*2.1 mm; 1.7 um; 130A)(Waters Co.,Milford, MA, USA)
Retention time: 14.02744
Precursor type: [M+NH4]+
Precursor m/z: 870.7542
Intensity: 55600
m/z	relative intensity
71.084	1
77.038	2
79.053	7
81.069	32
83.085	13
85.065	1
85.101	1
91.053	6
93.069	12
95.085	35
97.063	2
97.101	9
99.079	3
105.068	4
107.084	5
109.1	19
111.079	2
111.116	5
113.096	2
117.068	0
119.084	4
121.101	20
123.116	18
125.098	2
125.131	1
127.11	1
127.117	0
131.087	2
133.102	7
135.116	18
137.094	0
137.131	9
139.109	1
141.124	0
145.101	2
147.117	6
149.132	11
151.114	0
151.147	5
153.126	3
155.144	1
159.115	3
161.133	11
163.147	11
165.163	2
167.142	1
173.133	4
175.148	13
177.161	4
179.141	1
179.179	1
181.155	1
185.127	0
187.148	2
189.163	7
191.181	1
193.157	1
199.148	1
201.164	1
203.182	3
205.197	0
207.168	0
207.179	0
215.181	1
217.192	3
219.177	0
219.211	11
221.154	0
221.193	1
221.227	0
233.225	1
235.17	1
235.202	1
235.214	1
237.22	29
239.238	2
243.208	8
245.226	24
247.24	2
247.253	0
249.184	0
259.207	2
261.185	0
261.221	34
263.198	1
263.237	72
265.253	7
275.243	0
277.213	0
279.223	0
287.239	0
289.256	1
291.232	1
293.238	0
293.25	0
295.261	0
299.238	1
301.255	1
303.232	0
311.256	27
313.273	4
313.291	0
317.246	10
319.263	15
321.279	1
331.266	0
333.24	0
335.26	5
337.274	34
339.279	2
339.289	6
339.304	2
345.266	0
345.291	0
359.3	0
365.27	0
373.346	0
387.368	1
389.36	0
391.279	0
413.387	0
417.367	0
427.39	0
435.348	0
441.384	0
449.354	0
461.369	0
463.367	0
463.383	0
463.404	0
481.446	0
489.421	0
497.434	1
499.45	4
501.388	1
505.429	0
507.461	1
515.398	1
515.44	1
517.46	1
523.449	1
524.478	1
525.451	3
525.471	7
525.503	0
533.459	0
543.474	5
543.502	1
547.444	0
547.472	4
549.468	0
549.49	1
550.483	2
550.51	1
551.505	2
559.471	2
563.485	1
571.473	143
571.677	0
571.697	1
571.712	0
572.478	1
573.365	1
573.487	999
574.495	22
575.504	202
576.49	2
576.512	1
577.53	1
581.498	0
585.506	0
587.508	1
589.479	1
591.499	0
591.521	0
597.488	92
597.642	1
598.477	0
598.506	1
599.503	727
600.504	9
600.519	2
600.529	3
601.498	8
601.519	31
601.557	2
603.535	1
613.487	0
615.498	1
617.515	2
625.498	0
625.524	1
671.544	0
673.537	0
685.568	0
687.559	0
697.609	0
699.576	0
701.57	0
713.58	0
713.624	0
715.585	0
723.608	0
727.564	0
727.605	0
741.601	1
741.641	1
743.608	0
743.638	0
755.585	0
755.623	0
755.645	0
755.675	0
769.629	0
769.677	0
783.658	1
817.713	0
835.654	0
835.685	2
835.716	16
835.747	4
836.724	0
851.046	0
853.725	139
854.681	0
854.715	1
854.734	1
854.765	0
854.804	0
868.028	0
870.598	0
870.755	135
871.711	0
871.746	1
871.763	1
871.79	1
