Mass spectrum: BMP 34:2; LC-ESI-QTOF; MS2
Name: BMP 34:2
Class:  BMP
Formula: C40H75O10P
Exact mass: 747.006
SMILES: CCCCCCCCCCCCCCCC(=O)OC(CO)COP(O)(=O)OCC(CO)OC(=O)CCCCCCC\C=C/C\C=C/CCCCC
InChI: InChI=1S/C40H75O10P/c1-3-5-7-9-11-13-15-17-18-20-22-24-26-28-30-32-40(44)50-38(34-42)36-48-51(45,46)47-35-37(33-41)49-39(43)31-29-27-25-23-21-19-16-14-12-10-8-6-4-2/h11,13,17-18,37-38,41-42H,3-10,12,14-16,19-36H2,1-2H3,(H,45,46)/b13-11-,18-17-
Instrument: AB Sciex TripleTOF 5600+ system (Q-TOF) equipped with a DuoSpray ion source
Instrument type: LC-ESI-QTOF
Ms type: MS2
Ion mode: POSITIVE
Collision energy: 45V
Column name: Acquity UPLC Peptide BEH C18 column (50*2.1 mm; 1.7 um; 130A)(Waters Co.,Milford, MA, USA)
Retention time: 8.148777
Precursor type: [M+NH4]+
Precursor m/z: 764.5418
Intensity: 1627
m/z	relative intensity
81.07	17
83.085	9
93.071	5
95.087	13
97.06	4
97.101	5
109.102	5
121.1	4
128.95	5
135.115	4
161.128	4
177.169	4
189.164	4
239.24	4
245.224	7
263.231	6
263.244	6
277.223	2
290.15	2
311.257	37
312.928	2
313.273	178
313.294	12
314.268	3
319.256	2
332.95	2
336.253	7
337.272	999
339.283	25
339.309	4
380.881	2
393.226	3
394.892	3
449.295	2
478.889	2
547.504	2
573.49	10
574.486	18
575.494	78
575.51	59
605.541	4
623.534	6
666.491	10
688.457	12
688.483	16
709.293	2
711.46	7
711.491	30
711.514	12
764.45	3
764.55	7
