Mass spectrum: TG 54:7; LC-ESI-QTOF; MS2
Name: TG 54:7
Class:  TAG
Formula: C57H96O6
Exact mass: 877.389
SMILES: CCCCCCCC\C=C/CCCCCC(=O)OCC(COC(=O)CCC\C=C/C\C=C/C\C=C/C\C=C/CCCCC)OC(=O)CCCCCCCC\C=C/C=C\CCCCC
InChI: InChI=1S/C57H96O6/c1-4-7-10-13-16-19-22-25-27-28-30-32-35-38-41-44-47-50-56(59)62-53-54(52-61-55(58)49-46-43-40-37-34-31-24-21-18-15-12-9-6-3)63-57(60)51-48-45-42-39-36-33-29-26-23-20-17-14-11-8-5-2/h16-17,19-20,23,25-27,30-32,34,38,41,54H,4-15,18,21-22,24,28-29,33,35-37,39-40,42-53H2,1-3H3/b19-16-,20-17-,26-23-,27-25-,32-30-,34-31-,41-38-
Instrument: AB Sciex TripleTOF 5600+ system (Q-TOF) equipped with a DuoSpray ion source
Instrument type: LC-ESI-QTOF
Ms type: MS2
Ion mode: POSITIVE
Collision energy: 45V
Column name: Acquity UPLC Peptide BEH C18 column (50*2.1 mm; 1.7 um; 130A)(Waters Co.,Milford, MA, USA)
Retention time: 14.04294
Precursor type: [M+NH4]+
Precursor m/z: 894.7526
Intensity: 52350
m/z	relative intensity
71.085	6
77.038	2
79.053	6
81.069	31
83.085	9
85.065	1
85.1	7
91.054	18
93.069	14
95.084	31
97.064	1
97.101	8
99.117	1
105.07	11
107.084	11
109.101	21
111.082	1
111.117	2
117.069	11
119.085	16
121.101	17
123.08	1
123.117	15
125.097	2
129.069	6
131.085	19
133.101	16
135.082	2
135.116	13
137.132	7
141.071	3
143.085	4
145.1	13
147.116	10
149.1	1
149.131	6
151.148	2
155.087	3
157.1	10
159.116	20
161.094	2
161.132	17
163.113	3
163.148	10
165.128	1
165.165	2
169.102	9
171.116	18
173.094	1
173.133	20
175.114	4
175.148	18
177.127	2
177.168	2
183.117	12
185.132	25
187.116	1
187.149	19
189.126	4
189.165	10
197.132	15
199.147	14
201.131	4
201.163	83
203.143	6
203.181	2
209.133	2
211.15	15
213.163	6
215.142	5
215.179	1
217.158	2
221.227	2
223.148	2
225.163	11
227.179	2
229.157	2
237.222	2
239.181	6
239.238	32
241.193	5
243.173	1
243.21	6
245.226	10
256.265	2
257.191	4
257.225	6
257.236	2
257.253	2
263.237	34
265.195	3
265.253	4
267.211	89
269.226	2
281.187	0
281.229	0
283.206	5
285.222	94
286.217	1
287.234	1
297.281	0
311.259	9
313.274	115
314.276	2
317.249	1
319.266	6
323.231	1
331.289	0
335.257	1
337.273	103
338.273	1
339.285	9
339.296	4
339.304	2
341.248	5
341.265	2
353.279	0
357.238	1
357.251	1
359.251	1
359.264	2
365.269	1
367.286	5
381.313	0
391.282	5
393.296	0
435.348	1
437.368	0
459.352	1
463.396	1
473.354	0
477.388	0
487.381	0
489.396	0
491.409	0
497.357	0
499.381	1
501.459	1
505.442	1
513.394	1
515.406	1
523.439	0
523.469	0
527.418	0
529.443	3
537.399	0
539.41	0
541.419	0
547.444	4
547.463	5
547.488	0
549.468	1
549.491	1
551.416	0
565.461	1
573.455	0
573.487	5
573.524	1
573.705	2
573.719	2
575.502	999
575.553	2
576.507	90
576.529	21
577.513	5
585.462	0
589.517	0
593.461	1
595.472	19
595.502	2
597.487	204
598.487	6
599.531	0
601.53	0
613.466	1
613.489	1
615.48	1
615.501	1
615.523	0
621.487	266
622.456	0
622.487	3
622.508	3
623.501	24
623.53	2
637.498	1
639.499	2
649.526	0
697.565	0
699.597	0
727.581	0
737.624	0
741.614	0
751.622	0
753.612	0
755.631	0
765.653	0
767.607	0
779.615	0
781.65	0
793.615	0
793.685	0
795.63	0
795.676	0
807.616	0
807.665	0
821.654	0
835.703	0
859.698	6
859.727	4
859.755	1
860.728	0
874.974	0
877.726	80
877.832	0
878.708	1
878.729	0
878.764	1
891.924	0
891.986	0
894.473	0
894.753	147
894.833	1
895.728	1
895.759	7
