Mass spectrum: TG 47:0; LC-ESI-QTOF; MS2
Name: TG 47:0
Class:  TAG
Formula: C50H96O6
Exact mass: 793.312
SMILES: CCCCCCCCCCCCCCCC(=O)OCC(COC(=O)CCCCCCCCCCCCCC)OC(=O)CCCCCCCCCCCCCCC
InChI: InChI=1S/C50H96O6/c1-4-7-10-13-16-19-22-25-28-31-34-37-40-43-49(52)55-46-47(45-54-48(51)42-39-36-33-30-27-24-21-18-15-12-9-6-3)56-50(53)44-41-38-35-32-29-26-23-20-17-14-11-8-5-2/h47H,4-46H2,1-3H3
Instrument: AB Sciex TripleTOF 5600+ system (Q-TOF) equipped with a DuoSpray ion source
Instrument type: LC-ESI-QTOF
Ms type: MS2
Ion mode: POSITIVE
Collision energy: 45V
Column name: Acquity UPLC Peptide BEH C18 column (50*2.1 mm; 1.7 um; 130A)(Waters Co.,Milford, MA, USA)
Retention time: 14.54013
Precursor type: [M+NH4]+
Precursor m/z: 810.7542
Intensity: 802
m/z	relative intensity
85.099	78
239.24	175
537.465	156
537.472	398
537.478	519
537.485	402
537.492	515
537.498	355
537.505	398
537.511	199
551.496	999
551.513	359
551.52	238
551.526	238
551.55	78
565.505	156
810.526	156
810.604	89
810.73	78
