Mass spectrum: TG 54:5; LC-ESI-QTOF; MS2
Name: TG 54:5
Class:  TAG
Formula: C57H100O6
Exact mass: 881.4209999999999
SMILES: CCCCCC\C=C/CCCCCCCCCC(=O)OCC(COC(=O)CCCCCCCCC\C=C/C=C\C=C/CC)OC(=O)CCCCCCCCC\C=C/CCCCCC
InChI: InChI=1S/C57H100O6/c1-4-7-10-13-16-19-22-25-28-31-34-37-40-43-46-49-55(58)61-52-54(63-57(60)51-48-45-42-39-36-33-30-27-24-21-18-15-12-9-6-3)53-62-56(59)50-47-44-41-38-35-32-29-26-23-20-17-14-11-8-5-2/h7,10,13,16,19-24,54H,4-6,8-9,11-12,14-15,17-18,25-53H2,1-3H3/b10-7-,16-13-,22-19-,23-20-,24-21-
Instrument: AB Sciex TripleTOF 5600+ system (Q-TOF) equipped with a DuoSpray ion source
Instrument type: LC-ESI-QTOF
Ms type: MS2
Ion mode: POSITIVE
Collision energy: 45V
Column name: Acquity UPLC Peptide BEH C18 column (50*2.1 mm; 1.7 um; 130A)(Waters Co.,Milford, MA, USA)
Retention time: 14.31566
Precursor type: [M+NH4]+
Precursor m/z: 898.7838
Intensity: 1223134
m/z	relative intensity
71.05	2
71.085	4
77.038	6
79.054	26
81.07	93
83.049	1
83.086	36
85.065	4
85.101	4
91.054	12
93.07	38
95.085	95
97.064	3
97.101	29
99.08	7
105.07	5
107.085	32
109.101	68
111.079	2
111.117	13
113.096	4
117.069	1
119.086	14
121.101	57
123.078	0
123.117	51
125.096	4
125.131	3
127.111	4
131.082	1
133.101	24
135.117	48
137.098	1
137.132	26
139.111	4
139.144	0
141.127	3
145.101	3
147.117	20
149.132	40
151.111	1
151.148	17
153.127	10
155.142	1
157.101	0
159.116	4
161.133	37
163.116	0
163.148	43
165.125	2
165.162	14
167.142	4
169.159	0
171.115	2
173.132	7
175.117	0
175.148	41
177.129	1
177.163	17
179.143	3
179.18	6
181.122	0
181.159	5
185.132	1
187.147	4
189.163	18
191.143	0
191.179	7
193.159	6
193.196	0
195.137	1
195.176	1
199.148	2
201.162	2
203.179	8
205.196	3
207.174	5
209.154	1
209.19	0
213.164	1
215.178	1
217.194	3
219.173	0
219.21	1
221.155	1
221.188	3
221.227	1
223.161	0
223.174	0
227.18	0
229.188	0
229.2	0
231.211	0
233.222	1
233.233	0
235.17	2
235.205	0
235.242	1
237.187	1
237.227	0
241.188	1
243.211	14
245.226	98
247.241	44
249.184	3
249.223	0
249.259	0
255.218	0
257.225	0
259.207	0
259.245	0
261.222	44
261.257	0
263.237	324
265.253	145
266.256	0
269.217	0
271.205	0
271.231	0
271.247	0
273.222	0
273.261	0
275.195	0
275.238	2
275.265	0
277.214	2
277.251	1
277.29	0
279.23	1
281.234	0
282.267	0
282.278	1
283.23	0
283.245	0
285.215	0
285.257	0
287.235	0
287.25	0
287.273	0
289.215	0
289.252	3
289.272	0
289.293	0
291.228	0
291.243	0
291.268	0
293.251	0
297.23	0
297.262	0
299.232	0
299.247	0
299.279	0
301.252	3
301.286	0
303.231	0
303.269	1
305.249	1
305.287	0
307.258	0
311.255	0
311.268	0
313.249	0
313.288	0
315.271	0
315.31	0
317.247	12
317.292	0
318.276	0
319.263	63
321.247	0
321.279	6
321.308	0
323.234	0
323.279	0
323.296	0
325.265	0
325.276	0
327.263	0
329.249	0
329.29	0
331.259	0
331.271	0
331.296	0
333.236	0
333.268	0
333.29	0
333.31	0
335.258	8
335.299	0
336.22	0
337.274	128
337.318	0
339.29	132
341.283	0
341.309	0
343.264	0
343.302	0
345.279	1
345.298	0
345.318	0
347.294	0
347.325	0
349.227	0
349.254	0
349.277	0
349.31	0
351.251	0
351.289	0
353.282	0
353.312	0
355.289	0
355.312	0
357.283	0
357.315	0
359.29	0
359.333	1
361.308	0
363.253	1
363.287	0
365.264	0
365.287	0
367.302	0
367.329	0
369.31	0
369.348	0
371.302	0
371.332	0
373.298	0
373.317	0
373.346	1
375.262	0
375.321	0
375.338	0
375.362	0
377.271	0
377.31	0
377.335	0
379.289	0
383.328	0
383.37	0
385.345	0
385.374	0
387.328	0
387.341	0
387.362	1
389.261	0
389.336	0
391.278	1
391.295	1
391.345	0
391.364	0
393.297	0
395.343	0
397.346	0
399.348	0
399.367	0
401.379	1
403.276	0
403.304	0
403.345	0
403.364	0
403.384	0
405.297	1
405.375	0
409.354	0
411.33	0
411.363	0
413.337	0
413.364	0
413.384	1
415.345	0
415.361	0
415.4	0
417.297	0
417.333	0
417.372	1
419.309	0
419.393	0
421.336	0
423.371	0
425.377	0
427.352	0
427.39	0
429.367	0
429.387	0
429.408	0
431.325	0
431.354	0
431.387	0
433.326	0
433.347	0
433.371	0
433.402	0
435.338	0
439.351	0
441.355	0
441.377	0
441.41	0
443.382	0
443.404	0
445.365	0
445.403	1
447.345	0
447.371	0
447.416	0
449.346	0
449.374	0
455.388	0
459.348	0
459.363	0
459.386	0
461.343	0
461.362	0
461.389	0
461.412	0
463.379	0
463.399	0
475.381	2
477.391	1
487.372	1
487.399	0
489.388	2
491.409	2
501.383	1
501.41	1
503.398	1
503.418	1
505.431	1
507.452	5
509.452	1
509.467	1
509.487	1
515.413	1
523.451	0
525.465	27
527.481	14
529.418	1
531.441	0
535.478	1
538.481	1
538.498	1
543.473	24
545.464	1
545.49	7
550.485	0
559.466	1
561.487	2
562.489	3
562.508	1
564.501	1
571.465	1
573.483	8
575.472	0
575.506	13
576.483	1
581.489	2
585.48	2
585.499	0
587.496	3
587.524	1
589.512	2
597.473	0
597.494	2
597.602	1
597.619	4
597.64	5
597.656	1
599.5	999
600.517	25
600.739	1
601.102	1
601.287	1
601.32	1
601.395	1
601.516	985
602.167	1
602.548	120
602.763	16
602.923	5
603.118	16
603.149	1
603.31	1
603.35	1
603.529	198
604.491	1
613.532	1
615.492	3
615.526	7
615.549	1
617.497	4
617.521	8
619.53	3
625.511	1
625.535	1
627.534	13
629.54	1
629.562	1
641.554	0
653.603	0
671.521	0
671.56	0
671.577	0
673.513	0
673.531	0
673.556	0
673.629	0
683.58	0
683.621	0
685.533	0
685.587	0
687.541	0
687.569	0
697.614	0
699.549	0
699.568	0
699.622	0
701.543	0
701.582	0
709.583	0
711.625	0
713.573	0
715.6	0
725.635	0
727.566	0
727.605	0
729.585	0
729.605	0
737.621	0
739.647	0
741.58	0
741.607	0
741.637	0
743.601	0
745.637	0
751.612	0
751.646	0
753.701	0
755.603	1
755.635	1
755.657	1
757.611	0
757.647	0
765.646	0
769.602	1
769.627	2
769.648	2
769.669	2
769.708	0
771.661	0
771.701	0
779.637	0
783.648	5
783.688	1
785.669	0
789.71	0
797.643	0
797.673	1
797.696	0
797.725	0
807.717	0
811.648	0
811.673	0
811.703	0
825.679	0
825.73	0
835.747	0
839.726	0
861.029	0
863.666	0
863.748	57
863.817	0
878.96	0
878.993	0
879.041	0
879.792	0
880.704	0
881.479	0
881.579	0
881.756	233
882.737	0
882.765	1
882.784	0
882.802	0
895.924	0
895.971	0
896.01	0
896.092	0
896.719	0
897.785	0
897.843	0
898.345	0
898.515	0
898.627	0
898.784	126
899.76	0
899.787	1
899.813	0
900.051	0
900.302	0
902.895	0
