Mass spectrum: TG 53:3; LC-ESI-QTOF; MS2
Name: TG 53:3
Class:  TAG
Formula: C56H102O6
Exact mass: 871.426
SMILES: CCCCCCCCCCCCCCCC(=O)OCC(COC(=O)CCCCCCC\C=C/CCCCCCCCC)OC(=O)CCCCCCCC\C=C/C=C\CCCCC
InChI: InChI=1S/C56H102O6/c1-4-7-10-13-16-19-22-25-27-29-31-34-37-40-43-46-49-55(58)61-52-53(51-60-54(57)48-45-42-39-36-33-30-24-21-18-15-12-9-6-3)62-56(59)50-47-44-41-38-35-32-28-26-23-20-17-14-11-8-5-2/h17,20,23,26-27,29,53H,4-16,18-19,21-22,24-25,28,30-52H2,1-3H3/b20-17-,26-23-,29-27-
Instrument: AB Sciex TripleTOF 5600+ system (Q-TOF) equipped with a DuoSpray ion source
Instrument type: LC-ESI-QTOF
Ms type: MS2
Ion mode: POSITIVE
Collision energy: 45V
Column name: Acquity UPLC Peptide BEH C18 column (50*2.1 mm; 1.7 um; 130A)(Waters Co.,Milford, MA, USA)
Retention time: 14.67811
Precursor type: [M+NH4]+
Precursor m/z: 888.8005
Intensity: 13456
m/z	relative intensity
71.086	5
79.052	3
81.069	22
83.084	11
85.102	3
93.072	5
95.084	31
97.1	15
107.086	3
109.1	17
111.116	5
121.101	12
123.117	6
135.117	9
137.129	3
149.131	4
151.144	3
161.13	3
163.146	5
165.165	3
175.147	4
177.163	4
233.223	4
237.221	4
239.238	9
245.225	8
247.245	11
251.235	14
253.255	4
261.256	3
263.235	27
265.253	48
277.248	1
279.265	10
291.263	1
311.256	2
313.276	2
319.25	2
319.263	5
319.275	2
321.277	2
323.298	1
325.272	6
327.286	8
327.305	3
337.263	2
337.281	4
339.286	22
339.307	4
341.307	1
353.307	5
355.314	1
515.482	2
549.486	2
561.469	8
561.485	11
561.505	7
563.496	10
563.522	3
565.52	7
565.544	5
573.457	2
573.491	15
575.5	213
577.513	13
577.54	6
583.459	4
585.476	2
585.495	6
587.5	40
587.671	3
589.518	999
590.5	3
590.526	2
591.533	388
592.544	4
597.465	6
597.507	2
599.481	2
599.522	4
601.518	298
603.531	389
605.544	4
611.471	2
611.497	6
611.515	3
615.53	158
617.549	64
617.569	26
625.504	4
629.55	16
629.58	3
829.713	1
853.752	3
853.798	2
865.031	1
867.708	47
867.74	245
867.772	61
868.742	2
869.041	0
871.749	8
871.776	33
871.836	1
885.983	0
888.541	1
888.667	1
888.763	29
888.802	147
888.842	22
888.892	1
889.832	1
