Mass spectrum: BMP 38:6; LC-ESI-QTOF; MS2
Name: BMP 38:6
Class:  BMP
Formula: C44H75O10P
Exact mass: 795.05
SMILES: CCCCC\C=C/C\C=C/CCCCCCCC(=O)OC(CO)COP(O)(=O)OCC(CO)OC(=O)CCCCCC\C=C/C\C=C/C\C=C/C\C=C/CC
InChI: InChI=1S/C44H75O10P/c1-3-5-7-9-11-13-15-17-19-20-22-24-26-28-30-32-34-36-44(48)54-42(38-46)40-52-55(49,50)51-39-41(37-45)53-43(47)35-33-31-29-27-25-23-21-18-16-14-12-10-8-6-4-2/h5,7,11-14,17-19,21-22,24,41-42,45-46H,3-4,6,8-10,15-16,20,23,25-40H2,1-2H3,(H,49,50)/b7-5-,13-11-,14-12-,19-17-,21-18-,24-22-
Instrument: AB Sciex TripleTOF 5600+ system (Q-TOF) equipped with a DuoSpray ion source
Instrument type: LC-ESI-QTOF
Ms type: MS2
Ion mode: POSITIVE
Collision energy: 45V
Column name: Acquity UPLC Peptide BEH C18 column (50*2.1 mm; 1.7 um; 130A)(Waters Co.,Milford, MA, USA)
Retention time: 7.950749
Precursor type: [M+NH4]+
Precursor m/z: 812.5449
Intensity: 1848
m/z	relative intensity
81.071	13
91.052	15
93.068	18
107.087	18
109.103	18
117.071	15
119.085	23
121.102	13
133.102	13
161.137	15
171.113	18
185.131	13
187.151	15
201.163	14
203.179	43
263.235	15
269.223	35
287.235	16
319.265	5
336.215	8
337.273	999
339.283	7
339.864	5
345.98	5
355.628	5
361.271	656
361.291	62
623.502	21
623.556	5
627.54	5
795.53	7
