Mass spectrum: TG 50:5; LC-ESI-QTOF; MS2
Name: TG 50:5
Class:  TAG
Formula: C53H92O6
Exact mass: 825.313
SMILES: CCCCCCCCCCCCCC(=O)OCC(COC(=O)CCC\C=C/C\C=C/C\C=C/C\C=C/CCCCC)OC(=O)CCCCC\C=C/CCCCCCCC
InChI: InChI=1S/C53H92O6/c1-4-7-10-13-16-19-22-24-25-26-27-29-31-34-37-40-43-46-52(55)58-49-50(48-57-51(54)45-42-39-36-33-30-21-18-15-12-9-6-3)59-53(56)47-44-41-38-35-32-28-23-20-17-14-11-8-5-2/h16,19,24-25,27-29,32,34,37,50H,4-15,17-18,20-23,26,30-31,33,35-36,38-49H2,1-3H3/b19-16-,25-24-,29-27-,32-28-,37-34-
Instrument: AB Sciex TripleTOF 5600+ system (Q-TOF) equipped with a DuoSpray ion source
Instrument type: LC-ESI-QTOF
Ms type: MS2
Ion mode: POSITIVE
Collision energy: 45V
Column name: Acquity UPLC Peptide BEH C18 column (50*2.1 mm; 1.7 um; 130A)(Waters Co.,Milford, MA, USA)
Retention time: 13.94112
Precursor type: [M+NH4]+
Precursor m/z: 842.7203
Intensity: 2566
m/z	relative intensity
81.068	51
83.086	31
85.101	25
91.051	28
93.071	30
95.084	72
119.085	36
149.134	23
159.12	25
185.131	41
186.996	23
191.18	25
203.18	113
211.206	30
215.178	47
233.189	35
237.218	30
239.235	28
245.226	23
257.212	28
259.237	23
263.235	26
268.996	59
269.228	95
283.226	30
283.241	17
285.224	12
285.237	28
285.25	49
287.224	28
287.238	126
311.256	87
313.268	33
313.283	25
319.263	12
337.261	30
339.289	26
365.278	13
367.285	15
433.003	35
515.008	27
521.439	316
521.459	999
543.437	116
543.468	23
545.441	51
545.459	157
545.476	28
547.461	56
547.491	38
549.478	44
569.439	72
569.455	288
569.479	36
571.448	64
571.473	144
571.506	28
573.49	48
575.478	119
575.502	943
575.526	94
597.483	260
599.495	33
599.524	20
601.513	38
625.512	38
797.7	8
807.643	8
807.674	15
807.709	17
823.637	17
823.656	33
823.681	85
823.702	17
823.714	12
825.68	28
825.702	56
825.741	10
833.691	7
842.673	17
842.684	17
842.692	23
842.728	183
842.753	33
