Mass spectrum: TG 50:5; LC-ESI-QTOF; MS2
Name: TG 50:5
Class:  TAG
Formula: C53H92O6
Exact mass: 825.313
SMILES: CCCCCC\C=C/CCCCCCCCCC(=O)OC(COC(=O)CCCCCCCCC\C=C/C=C\C=C/CC)COC(=O)CCCCCCC\C=C/CCCC
InChI: InChI=1S/C53H92O6/c1-4-7-10-13-16-19-22-24-26-28-31-34-37-40-43-46-52(55)58-49-50(48-57-51(54)45-42-39-36-33-30-21-18-15-12-9-6-3)59-53(56)47-44-41-38-35-32-29-27-25-23-20-17-14-11-8-5-2/h7,10,13,15-16,18-20,22-23,50H,4-6,8-9,11-12,14,17,21,24-49H2,1-3H3/b10-7-,16-13-,18-15-,22-19-,23-20-
Instrument: AB Sciex TripleTOF 5600+ system (Q-TOF) equipped with a DuoSpray ion source
Instrument type: LC-ESI-QTOF
Ms type: MS2
Ion mode: POSITIVE
Collision energy: 45V
Column name: Acquity UPLC Peptide BEH C18 column (50*2.1 mm; 1.7 um; 130A)(Waters Co.,Milford, MA, USA)
Retention time: 13.78402
Precursor type: [M+NH4]+
Precursor m/z: 842.7241
Intensity: 2550
m/z	relative intensity
71.085	16
79.052	24
81.068	46
93.069	28
95.084	51
97.102	18
107.086	25
109.101	41
121.101	39
123.119	23
133.099	22
135.12	33
149.132	27
161.132	33
163.148	22
173.129	16
175.151	29
211.205	39
237.219	18
243.208	35
245.231	20
259.205	16
261.221	133
263.238	32
263.252	18
281.225	7
283.232	8
285.225	8
285.239	20
285.249	42
299.235	11
311.255	35
317.251	51
319.272	16
335.259	16
337.276	28
337.294	11
339.287	13
350.999	5
432.997	8
463.38	5
471.422	8
495.44	8
519.451	11
521.456	8
523.453	18
543.442	44
545.439	175
545.46	784
545.759	11
547.477	970
549.488	18
569.452	15
569.474	15
571.475	354
573.475	30
573.499	77
575.502	22
575.532	10
597.489	999
597.555	15
599.509	100
601.512	33
625.52	13
715.596	5
807.666	18
807.688	18
807.71	25
809.673	11
825.664	22
825.691	114
825.719	87
842.576	10
842.685	22
842.725	217
842.765	34
