Mass spectrum: TG 47:1; LC-ESI-QTOF; MS2
Name: TG 47:1
Class:  TAG
Formula: C50H94O6
Exact mass: 791.2959999999999
SMILES: CCCCCCCCCCCCCCCC(=O)OC(COC(=O)CCCCCCCCCCCCC)COC(=O)CCCCC\C=C/CCCCCCCCC
InChI: InChI=1S/C50H94O6/c1-4-7-10-13-16-19-22-24-26-28-31-34-37-40-43-49(52)55-46-47(45-54-48(51)42-39-36-33-30-27-21-18-15-12-9-6-3)56-50(53)44-41-38-35-32-29-25-23-20-17-14-11-8-5-2/h26,28,47H,4-25,27,29-46H2,1-3H3/b28-26-
Instrument: AB Sciex TripleTOF 5600+ system (Q-TOF) equipped with a DuoSpray ion source
Instrument type: LC-ESI-QTOF
Ms type: MS2
Ion mode: POSITIVE
Collision energy: 45V
Column name: Acquity UPLC Peptide BEH C18 column (50*2.1 mm; 1.7 um; 130A)(Waters Co.,Milford, MA, USA)
Retention time: 14.24138
Precursor type: [M+NH4]+
Precursor m/z: 808.7334
Intensity: 4659
m/z	relative intensity
71.085	20
81.07	28
83.085	28
85.101	24
95.083	45
97.099	30
109.103	20
111.115	21
121.101	20
123.117	22
135.117	14
137.133	14
165.164	14
211.202	26
219.211	14
225.215	22
225.227	30
237.22	41
239.238	55
251.239	12
265.251	20
285.25	8
299.256	13
311.264	10
313.267	18
313.295	6
495.439	24
507.447	12
509.437	62
509.459	299
521.455	119
523.46	89
523.482	119
535.471	999
537.489	633
549.471	132
549.489	515
549.531	23
551.497	24
551.519	22
563.503	550
563.54	18
565.507	18
577.514	86
577.537	35
591.514	14
591.552	14
775.562	4
808.701	22
808.742	26
808.765	20
