Mass spectrum: TG 49:3; LC-ESI-QTOF; MS2
Name: TG 49:3
Class:  TAG
Formula: C52H94O6
Exact mass: 815.318
SMILES: CCCCCCCCCCCCCC(=O)OCC(COC(=O)CCCCCCCC\C=C/C=C\CCCCC)OC(=O)CCCCC\C=C/CCCCCCCCC
InChI: InChI=1S/C52H94O6/c1-4-7-10-13-16-19-22-24-26-28-30-33-36-39-42-45-51(54)57-48-49(47-56-50(53)44-41-38-35-32-29-21-18-15-12-9-6-3)58-52(55)46-43-40-37-34-31-27-25-23-20-17-14-11-8-5-2/h16,19,22,24,27,31,49H,4-15,17-18,20-21,23,25-26,28-30,32-48H2,1-3H3/b19-16-,24-22-,31-27-
Instrument: AB Sciex TripleTOF 5600+ system (Q-TOF) equipped with a DuoSpray ion source
Instrument type: LC-ESI-QTOF
Ms type: MS2
Ion mode: POSITIVE
Collision energy: 45V
Column name: Acquity UPLC Peptide BEH C18 column (50*2.1 mm; 1.7 um; 130A)(Waters Co.,Milford, MA, USA)
Retention time: 14.055
Precursor type: [M+NH4]+
Precursor m/z: 832.7364
Intensity: 26753
m/z	relative intensity
71.085	10
79.053	10
81.068	45
83.085	21
85.101	14
93.068	17
95.085	60
97.101	21
107.084	12
109.099	39
111.117	7
121.099	28
123.115	30
135.116	17
137.129	9
149.127	8
149.135	10
161.131	10
163.147	11
165.163	6
175.149	14
211.203	18
219.209	22
223.204	15
225.211	8
225.223	24
237.218	45
239.235	19
245.219	7
245.23	19
251.229	7
261.218	18
263.235	66
265.251	10
285.229	2
285.247	9
293.243	3
297.241	5
299.236	1
299.257	24
299.272	3
309.243	2
311.255	18
311.267	9
313.273	32
317.248	8
319.261	18
321.269	2
325.276	5
335.254	2
337.269	19
337.291	7
339.274	7
339.295	14
495.431	16
496.444	32
499.446	5
519.429	4
521.445	38
521.458	15
521.476	19
522.425	4
522.453	94
522.478	42
524.46	32
524.486	37
531.441	5
533.426	18
533.455	121
535.47	999
536.468	6
537.487	79
545.451	19
547.472	199
549.474	51
549.494	66
550.457	7
550.477	35
550.496	63
552.5	5
559.45	62
559.472	299
561.487	852
562.482	8
563.487	12
563.508	25
571.683	5
573.485	747
574.48	5
575.501	344
576.498	5
577.509	36
577.527	24
578.523	21
587.499	153
587.528	28
589.493	6
589.514	11
601.505	45
601.545	12
603.538	7
615.532	6
675.526	1
675.622	1
689.588	0
703.594	2
773.643	1
778.687	1
795.702	0
795.757	3
797.704	12
815.673	7
815.703	30
815.734	13
832.674	5
832.708	49
832.734	90
832.753	46
833.737	1
