Mass spectrum: TG 49:2; LC-ESI-QTOF; MS2
Name: TG 49:2
Class:  TAG
Formula: C52H96O6
Exact mass: 817.3340000000001
SMILES: CCCCCCCCCCCCCCCC(=O)OC(COC(=O)CCCCCCCCCCCCCC)COC(=O)CCCCCCCC\C=C/C=C\CCCCC
InChI: InChI=1S/C52H96O6/c1-4-7-10-13-16-19-22-25-26-28-30-33-36-39-42-45-51(54)57-48-49(47-56-50(53)44-41-38-35-32-29-24-21-18-15-12-9-6-3)58-52(55)46-43-40-37-34-31-27-23-20-17-14-11-8-5-2/h16,19,22,25,49H,4-15,17-18,20-21,23-24,26-48H2,1-3H3/b19-16-,25-22-
Instrument: AB Sciex TripleTOF 5600+ system (Q-TOF) equipped with a DuoSpray ion source
Instrument type: LC-ESI-QTOF
Ms type: MS2
Ion mode: POSITIVE
Collision energy: 45V
Column name: Acquity UPLC Peptide BEH C18 column (50*2.1 mm; 1.7 um; 130A)(Waters Co.,Milford, MA, USA)
Retention time: 14.33927
Precursor type: [M+NH4]+
Precursor m/z: 834.752
Intensity: 35099
m/z	relative intensity
71.084	13
79.053	5
81.069	32
83.084	16
85.099	16
93.069	3
95.084	42
97.098	10
99.116	2
107.086	3
109.1	27
111.116	6
119.085	3
121.1	9
123.115	22
125.127	2
133.1	4
135.117	5
137.132	11
149.133	4
151.146	5
161.131	5
163.146	7
165.162	4
175.145	5
177.163	3
189.163	6
207.209	2
211.204	3
221.223	3
225.22	30
237.222	6
239.234	37
245.224	18
245.236	5
247.243	2
251.235	3
263.235	70
265.248	3
265.259	2
277.215	0
283.24	1
285.234	1
285.251	1
299.257	17
301.255	1
311.255	2
313.271	21
313.303	0
319.262	9
325.264	1
325.283	1
327.296	1
335.262	0
337.263	1
337.276	4
339.272	0
339.287	3
339.302	2
367.292	0
451.374	0
487.45	1
501.463	1
519.443	1
521.456	1
523.465	3
523.485	1
524.47	16
533.452	2
533.47	2
535.469	83
535.806	1
537.486	767
538.484	6
547.468	44
547.498	4
549.487	59
551.492	16
551.513	13
559.734	2
561.486	999
562.459	1
562.484	4
562.511	2
563.5	122
564.495	1
565.496	1
573.714	2
575.204	0
575.502	880
576.488	2
576.506	3
576.523	2
577.519	54
579.528	1
589.514	65
591.542	1
603.505	1
603.533	3
617.546	1
797.737	0
799.684	0
799.715	1
799.755	1
817.667	0
817.715	3
817.739	3
817.785	1
832.151	0
834.624	0
834.694	3
834.754	97
835.743	1
