Mass spectrum: TG 46:3; LC-ESI-QTOF; MS2
Name: TG 46:3
Class:  TAG
Formula: C49H88O6
Exact mass: 773.237
SMILES: CCCCCCCCCCCCCCCC(=O)OC(COC(=O)CCCCCCCCCCC)COC(=O)CCCCCCCCC\C=C/C=C\C=C/CC
InChI: InChI=1S/C49H88O6/c1-4-7-10-13-16-19-21-23-24-26-27-30-33-36-39-42-48(51)54-45-46(44-53-47(50)41-38-35-32-29-18-15-12-9-6-3)55-49(52)43-40-37-34-31-28-25-22-20-17-14-11-8-5-2/h7,10,13,16,19,21,46H,4-6,8-9,11-12,14-15,17-18,20,22-45H2,1-3H3/b10-7-,16-13-,21-19-
Instrument: AB Sciex TripleTOF 5600+ system (Q-TOF) equipped with a DuoSpray ion source
Instrument type: LC-ESI-QTOF
Ms type: MS2
Ion mode: POSITIVE
Collision energy: 45V
Column name: Acquity UPLC Peptide BEH C18 column (50*2.1 mm; 1.7 um; 130A)(Waters Co.,Milford, MA, USA)
Retention time: 13.669
Precursor type: [M+NH4]+
Precursor m/z: 790.6898
Intensity: 8862
m/z	relative intensity
71.084	12
79.054	13
81.07	61
83.085	22
85.101	10
93.071	20
95.085	58
97.102	11
107.083	16
109.101	40
121.099	25
123.118	22
135.115	24
137.13	19
149.135	11
155.143	15
161.132	13
163.145	10
183.172	23
191.18	10
207.175	11
211.203	20
219.213	11
237.222	16
245.221	23
257.215	14
261.218	11
263.238	45
265.252	34
283.231	5
285.247	8
311.247	7
311.259	14
313.276	19
319.259	11
319.274	7
337.272	16
337.284	8
339.288	15
339.302	5
341.3	4
409.338	5
435.347	11
463.37	12
463.387	7
465.396	22
467.405	54
467.434	9
489.408	6
491.409	549
493.426	999
495.426	23
495.452	32
517.424	162
519.398	7
519.441	491
521.441	21
521.462	38
523.476	6
545.449	199
545.468	137
545.767	7
547.443	37
547.474	266
549.483	67
549.518	7
573.486	402
575.482	29
575.499	133
575.522	25
575.539	8
577.511	14
577.541	8
601.517	438
603.529	26
603.559	15
605.555	13
629.54	8
747.664	1
755.643	8
755.692	1
764.682	11
773.656	23
773.688	15
773.716	5
788.239	2
790.573	1
790.694	123
