Mass spectrum: TG 42:0; LC-ESI-QTOF; MS2
Name: TG 42:0
Class:  TAG
Formula: C45H86O6
Exact mass: 723.177
SMILES: CCCCCCCCCCCCCCCC(=O)OCC(COC(=O)CCCCCCCCCCC)OC(=O)CCCCCCCCCCCCC
InChI: InChI=1S/C45H86O6/c1-4-7-10-13-16-19-21-22-24-26-29-32-35-38-44(47)50-41-42(40-49-43(46)37-34-31-28-25-18-15-12-9-6-3)51-45(48)39-36-33-30-27-23-20-17-14-11-8-5-2/h42H,4-41H2,1-3H3
Instrument: AB Sciex TripleTOF 5600+ system (Q-TOF) equipped with a DuoSpray ion source
Instrument type: LC-ESI-QTOF
Ms type: MS2
Ion mode: POSITIVE
Collision energy: 45V
Column name: Acquity UPLC Peptide BEH C18 column (50*2.1 mm; 1.7 um; 130A)(Waters Co.,Milford, MA, USA)
Retention time: 13.80745
Precursor type: [M+NH4]+
Precursor m/z: 740.6748
Intensity: 4040
m/z	relative intensity
71.085	29
81.067	28
83.084	18
85.103	24
95.086	53
97.102	15
99.114	9
109.1	32
111.116	11
113.133	6
123.114	11
137.128	6
137.136	10
155.141	17
183.175	25
211.203	33
239.234	52
285.228	2
292.949	2
313.275	7
439.38	59
465.949	6
465.999	4
467.408	999
467.611	2
468.174	3
494.036	2
495.172	2
495.44	510
495.571	2
523.467	169
523.494	61
523.518	2
525.913	2
530.833	2
551.499	377
551.527	60
579.524	27
579.542	18
607.562	10
625.525	2
740.658	9
740.71	5
