Mass spectrum: TG 60:6; LC-ESI-QTOF; MS2
Name: TG 60:6
Class:  TAG
Formula: C63H110O6
Exact mass: 963.567
SMILES: CCCCCCCC\C=C/CCCCCCCCCC(=O)OC(COC(=O)CCCCCCCCC\C=C/CCCCCC)COC(=O)CCCCCCCC\C=C/C\C=C/C\C=C/C\C=C/CC
InChI: InChI=1S/C63H110O6/c1-4-7-10-13-16-19-22-25-28-30-31-33-35-38-41-44-47-50-53-56-62(65)68-59-60(58-67-61(64)55-52-49-46-43-40-37-34-27-24-21-18-15-12-9-6-3)69-63(66)57-54-51-48-45-42-39-36-32-29-26-23-20-17-14-11-8-5-2/h7,10,16,19,21,24-26,28-29,31,33,60H,4-6,8-9,11-15,17-18,20,22-23,27,30,32,34-59H2,1-3H3/b10-7-,19-16-,24-21-,28-25-,29-26-,33-31-
Instrument: AB Sciex TripleTOF 5600+ system (Q-TOF) equipped with a DuoSpray ion source
Instrument type: LC-ESI-QTOF
Ms type: MS2
Ion mode: POSITIVE
Collision energy: 45V
Column name: Acquity UPLC Peptide BEH C18 column (50*2.1 mm; 1.7 um; 130A)(Waters Co.,Milford, MA, USA)
Retention time: 15.10457
Precursor type: [M+NH4]+
Precursor m/z: 980.8641
Intensity: 443
m/z	relative intensity
81.07	122
95.086	98
171.119	98
203.185	98
215.186	73
217.197	147
227.177	98
247.241	98
265.257	154
287.24	85
293.226	49
293.285	245
297.242	122
297.262	321
315.249	98
315.264	174
315.275	550
339.285	324
341.311	122
343.301	81
367.32	270
371.294	122
395.353	49
399.313	49
603.529	248
605.534	601
605.555	631
605.583	174
607.542	122
627.53	321
627.566	122
631.518	125
631.536	250
631.549	651
631.563	999
631.574	975
631.586	373
633.608	130
635.579	147
651.539	154
653.521	552
653.533	828
653.546	977
653.559	928
655.531	250
655.546	326
655.563	449
655.596	122
657.588	171
659.606	125
679.571	275
681.546	199
681.559	425
681.573	700
681.586	825
681.599	501
683.577	73
683.615	221
685.61	73
699.586	73
700.957	49
706.573	49
857.751	56
858.753	73
885.756	149
885.777	199
885.795	324
937.783	171
937.814	174
937.853	159
945.802	147
954.845	171
954.867	297
963.821	705
963.866	299
980.813	299
980.834	326
980.853	427
980.865	474
980.888	800
980.912	176
