Mass spectrum: TG 53:2; LC-ESI-QTOF; MS2
Name: TG 53:2
Class:  TAG
Formula: C56H104O6
Exact mass: 873.442
SMILES: CCCCCCCCCCCCCCCCC(=O)OCC(COC(=O)CCCCCCCCC\C=C/CCCCCC)OC(=O)CCCCCCCCC\C=C/CCCCCC
InChI: InChI=1S/C56H104O6/c1-4-7-10-13-16-19-22-25-28-31-34-37-40-43-46-49-55(58)61-52-53(51-60-54(57)48-45-42-39-36-33-30-27-24-21-18-15-12-9-6-3)62-56(59)50-47-44-41-38-35-32-29-26-23-20-17-14-11-8-5-2/h19-20,22-23,53H,4-18,21,24-52H2,1-3H3/b22-19-,23-20-
Instrument: AB Sciex TripleTOF 5600+ system (Q-TOF) equipped with a DuoSpray ion source
Instrument type: LC-ESI-QTOF
Ms type: MS2
Ion mode: POSITIVE
Collision energy: 45V
Column name: Acquity UPLC Peptide BEH C18 column (50*2.1 mm; 1.7 um; 130A)(Waters Co.,Milford, MA, USA)
Retention time: 14.98913
Precursor type: [M+NH4]+
Precursor m/z: 890.8195
Intensity: 517
m/z	relative intensity
81.068	24
83.087	30
95.087	30
97.1	24
121.102	30
135.122	24
186.997	74
239.236	30
247.244	26
260.965	26
265.253	61
269.0	136
279.264	24
292.96	12
302.976	12
313.273	12
339.29	18
342.973	12
351.0	18
433.002	54
433.042	18
563.501	42
575.503	49
577.516	367
577.539	162
589.52	54
591.494	62
591.528	999
591.551	207
591.561	113
591.571	56
591.581	37
592.528	45
593.544	42
603.523	305
603.543	143
603.571	48
605.546	63
617.538	310
617.568	181
631.56	56
873.793	24
890.76	198
890.785	74
890.812	112
890.85	30
