Mass spectrum: TG 53:3; LC-ESI-QTOF; MS2
Name: TG 53:3
Class:  TAG
Formula: C56H102O6
Exact mass: 871.426
SMILES: CCCCCCCCCCCCCCCC(=O)OCC(COC(=O)CCCCCCC\C=C/CCCCCCCCC)OC(=O)CCCCCCCC\C=C/C=C\CCCCC
InChI: InChI=1S/C56H102O6/c1-4-7-10-13-16-19-22-25-27-29-31-34-37-40-43-46-49-55(58)61-52-53(51-60-54(57)48-45-42-39-36-33-30-24-21-18-15-12-9-6-3)62-56(59)50-47-44-41-38-35-32-28-26-23-20-17-14-11-8-5-2/h17,20,23,26-27,29,53H,4-16,18-19,21-22,24-25,28,30-52H2,1-3H3/b20-17-,26-23-,29-27-
Instrument: AB Sciex TripleTOF 5600+ system (Q-TOF) equipped with a DuoSpray ion source
Instrument type: LC-ESI-QTOF
Ms type: MS2
Ion mode: POSITIVE
Collision energy: 45V
Column name: Acquity UPLC Peptide BEH C18 column (50*2.1 mm; 1.7 um; 130A)(Waters Co.,Milford, MA, USA)
Retention time: 14.68804
Precursor type: [M+NH4]+
Precursor m/z: 888.8013
Intensity: 2000
m/z	relative intensity
81.069	36
83.085	20
95.088	25
97.101	11
109.101	18
111.116	13
121.098	20
123.115	15
135.113	13
135.125	11
149.13	11
226.99	13
239.238	11
245.23	22
247.234	11
247.249	20
251.232	15
263.24	33
265.251	45
268.995	29
279.266	8
308.988	8
313.272	18
319.265	15
321.284	8
325.278	6
327.23	15
327.289	18
339.29	27
348.978	6
353.3	8
390.994	20
391.994	6
561.473	26
561.49	40
563.504	15
573.493	17
575.481	54
575.508	252
575.55	15
577.521	51
587.503	45
589.517	999
589.583	14
590.515	29
591.51	119
591.532	433
591.555	253
601.517	496
602.521	31
603.531	220
603.56	47
603.585	15
604.537	26
615.495	13
615.52	128
615.541	242
615.565	31
617.534	15
617.56	49
629.545	33
676.956	4
723.352	4
723.59	56
723.622	61
785.046	5
853.77	21
871.775	38
871.807	13
888.762	27
888.806	186
889.741	6
889.828	18
