Mass spectrum: TG 62:13; LC-ESI-QTOF; MS2
Name: TG 62:13
Class:  TAG
Formula: C65H100O6
Exact mass: 977.5089999999999
SMILES: CCCCC\C=C/C=C\CCCCCCCCC(=O)OCC(COC(=O)CC\C=C/C\C=C/C\C=C/C\C=C/C\C=C/C\C=C/CC)OC(=O)CCCCC\C=C/C\C=C/C\C=C/C\C=C/C\C=C/CC
InChI: InChI=1S/C65H100O6/c1-4-7-10-13-16-19-22-25-28-30-32-34-37-40-43-46-49-52-55-58-64(67)70-61-62(60-69-63(66)57-54-51-48-45-42-39-36-27-24-21-18-15-12-9-6-3)71-65(68)59-56-53-50-47-44-41-38-35-33-31-29-26-23-20-17-14-11-8-5-2/h7-8,10-11,16-21,24-29,32-35,40-41,43-44,49,52,62H,4-6,9,12-15,22-23,30-31,36-39,42,45-48,50-51,53-61H2,1-3H3/b10-7-,11-8-,19-16-,20-17-,21-18-,27-24-,28-25-,29-26-,34-32-,35-33-,43-40-,44-41-,52-49-
Instrument: AB Sciex TripleTOF 5600+ system (Q-TOF) equipped with a DuoSpray ion source
Instrument type: LC-ESI-QTOF
Ms type: MS2
Ion mode: POSITIVE
Collision energy: 45V
Column name: Acquity UPLC Peptide BEH C18 column (50*2.1 mm; 1.7 um; 130A)(Waters Co.,Milford, MA, USA)
Retention time: 13.95549
Precursor type: [M+NH4]+
Precursor m/z: 994.7875
Intensity: 1703
m/z	relative intensity
79.054	23
81.069	45
83.084	18
91.054	45
95.087	39
105.07	33
109.097	29
117.069	42
119.083	32
129.068	26
131.081	26
135.121	24
141.064	21
145.103	21
147.115	26
159.118	29
161.133	26
169.091	17
171.109	18
171.113	18
173.13	35
175.148	32
181.1	20
185.133	53
187.147	26
189.123	19
197.134	20
199.145	45
201.16	66
209.126	29
211.15	39
213.164	42
215.173	33
225.161	38
227.182	41
237.164	21
239.181	19
245.227	21
251.179	17
263.243	35
269.218	38
291.209	11
293.223	72
293.233	15
295.245	41
311.22	15
311.23	51
311.243	62
313.255	48
337.263	53
337.274	36
337.281	24
337.286	27
337.294	14
339.279	12
339.29	20
367.266	23
369.284	20
385.274	32
387.285	27
391.29	15
623.49	21
647.467	33
647.49	246
647.503	105
647.517	220
649.468	39
649.476	33
649.483	109
649.51	999
649.526	367
649.533	306
649.54	197
650.533	11
651.534	35
657.484	11
671.487	21
695.499	39
695.518	9
697.475	33
697.499	57
697.507	48
697.514	57
697.522	75
697.531	75
697.543	87
697.559	27
697.566	18
723.518	9
826.604	5
850.681	5
903.714	35
903.767	29
912.7	90
912.725	29
951.718	138
951.739	24
951.747	33
951.756	36
951.765	24
951.778	24
959.762	23
977.742	30
977.751	33
977.76	57
977.769	21
977.778	33
994.717	27
994.726	33
994.769	477
994.788	157
994.799	211
994.81	162
994.819	86
994.841	43
