Mass spectrum: TG 45:2; LC-ESI-QTOF; MS2
Name: TG 45:2
Class:  TAG
Formula: C48H88O6
Exact mass: 761.226
SMILES: CCCCCCCCCCCCCCCCC(=O)OCC(COC(=O)CCC\C=C/CCCCCC)OC(=O)CCCCC\C=C/CCCCCCCC
InChI: InChI=1S/C48H88O6/c1-4-7-10-13-16-19-21-23-25-26-29-32-35-38-41-47(50)53-44-45(43-52-46(49)40-37-34-31-28-18-15-12-9-6-3)54-48(51)42-39-36-33-30-27-24-22-20-17-14-11-8-5-2/h24,27-28,31,45H,4-23,25-26,29-30,32-44H2,1-3H3/b27-24-,31-28-
Instrument: AB Sciex TripleTOF 5600+ system (Q-TOF) equipped with a DuoSpray ion source
Instrument type: LC-ESI-QTOF
Ms type: MS2
Ion mode: POSITIVE
Collision energy: 45V
Column name: Acquity UPLC Peptide BEH C18 column (50*2.1 mm; 1.7 um; 130A)(Waters Co.,Milford, MA, USA)
Retention time: 13.7464
Precursor type: [M+NH4]+
Precursor m/z: 778.6876
Intensity: 522
m/z	relative intensity
95.087	333
186.994	444
226.993	522
227.024	326
237.045	261
239.061	653
253.033	346
255.056	326
269.0	261
271.051	790
285.246	215
286.944	196
303.056	130
311.253	150
313.278	326
339.295	281
368.931	457
391.011	196
473.331	130
474.916	130
477.405	261
479.417	941
481.417	999
481.435	601
491.334	934
491.412	522
505.395	457
505.42	856
505.444	392
507.444	718
519.442	849
521.454	588
522.523	588
523.469	725
533.454	856
547.474	392
561.482	790
563.5	326
575.506	653
577.526	392
589.505	346
603.545	392
743.612	718
743.646	261
761.624	130
778.679	346
