Mass spectrum: TG 51:4; LC-ESI-QTOF; MS2
Name: TG 51:4
Class:  TAG
Formula: C54H96O6
Exact mass: 841.356
SMILES: CCCCCCCCCCCCCCC(=O)OCC(COC(=O)CCCCCCCC\C=C/C=C\CCCCC)OC(=O)CCCCCCCC\C=C/C=C\CCCCC
InChI: InChI=1S/C54H96O6/c1-4-7-10-13-16-19-22-25-27-29-32-35-38-41-44-47-53(56)59-50-51(49-58-52(55)46-43-40-37-34-31-24-21-18-15-12-9-6-3)60-54(57)48-45-42-39-36-33-30-28-26-23-20-17-14-11-8-5-2/h16-17,19-20,22-23,25-26,51H,4-15,18,21,24,27-50H2,1-3H3/b19-16-,20-17-,25-22-,26-23-
Instrument: AB Sciex TripleTOF 5600+ system (Q-TOF) equipped with a DuoSpray ion source
Instrument type: LC-ESI-QTOF
Ms type: MS2
Ion mode: POSITIVE
Collision energy: 45V
Column name: Acquity UPLC Peptide BEH C18 column (50*2.1 mm; 1.7 um; 130A)(Waters Co.,Milford, MA, USA)
Retention time: 14.11679
Precursor type: [M+NH4]+
Precursor m/z: 858.754
Intensity: 747
m/z	relative intensity
81.071	56
95.085	56
109.1	37
123.115	47
225.217	56
226.989	48
239.239	47
245.233	48
263.234	113
265.253	56
290.951	18
299.258	84
301.259	18
311.253	21
313.268	47
319.271	47
329.012	28
337.274	61
344.98	18
446.926	18
448.986	18
521.468	124
523.453	114
523.48	114
547.446	143
547.462	144
547.477	364
549.48	376
549.497	193
549.532	56
559.479	133
561.475	934
561.496	801
563.503	183
573.484	171
575.484	142
575.499	268
575.517	182
585.474	133
585.511	76
587.511	114
599.5	999
601.52	50
820.698	40
823.748	18
841.717	133
841.766	37
858.53	31
858.664	45
858.73	104
858.769	114
858.832	28
