Mass spectrum: TG 58:11; LC-ESI-QTOF; MS2
Name: TG 58:11
Class:  TAG
Formula: C61H96O6
Exact mass: 925.433
SMILES: CCCCC\C=C/C=C\CCCCCCCCC(=O)OCC(COC(=O)CC\C=C/C\C=C/C\C=C/C\C=C/C\C=C/C\C=C/CC)OC(=O)CCCCCCCCC\C=C/C=C\C=C/CC
InChI: InChI=1S/C61H96O6/c1-4-7-10-13-16-19-22-25-28-29-30-31-34-36-39-42-45-48-51-54-60(63)66-57-58(67-61(64)55-52-49-46-43-40-37-33-27-24-21-18-15-12-9-6-3)56-65-59(62)53-50-47-44-41-38-35-32-26-23-20-17-14-11-8-5-2/h7,9-10,12,15-21,23-26,28,30-31,36,39,45,48,58H,4-6,8,11,13-14,22,27,29,32-35,37-38,40-44,46-47,49-57H2,1-3H3/b10-7-,12-9-,18-15-,19-16-,20-17-,24-21-,26-23-,28-25-,31-30-,39-36-,48-45-
Instrument: AB Sciex TripleTOF 5600+ system (Q-TOF) equipped with a DuoSpray ion source
Instrument type: LC-ESI-QTOF
Ms type: MS2
Ion mode: POSITIVE
Collision energy: 45V
Column name: Acquity UPLC Peptide BEH C18 column (50*2.1 mm; 1.7 um; 130A)(Waters Co.,Milford, MA, USA)
Retention time: 13.80087
Precursor type: [M+NH4]+
Precursor m/z: 942.7518
Intensity: 1929
m/z	relative intensity
79.053	20
81.07	25
91.053	25
93.07	19
95.084	34
107.083	13
109.1	19
119.085	14
121.1	22
131.084	12
133.101	13
135.114	13
149.133	12
159.113	14
161.131	18
163.149	12
171.119	16
173.131	22
175.147	23
187.148	12
199.15	12
201.166	15
213.164	17
225.165	12
227.177	14
243.21	18
245.225	12
261.217	26
261.232	13
263.235	29
269.231	13
281.191	4
281.226	7
283.247	17
285.237	4
291.205	6
293.215	12
293.229	29
309.228	10
311.223	14
311.237	28
311.249	24
317.241	9
317.26	7
319.264	9
335.245	12
335.266	23
337.257	14
337.276	20
337.291	12
367.262	9
389.258	5
541.421	5
571.445	7
595.469	9
595.645	9
596.461	8
596.494	8
597.484	999
598.494	25
599.473	8
599.503	24
615.508	6
645.443	7
645.482	181
645.529	24
647.479	47
647.499	199
647.528	41
648.5	12
661.485	7
663.503	7
697.501	3
719.551	2
735.572	2
749.611	2
829.643	2
841.654	2
872.679	14
883.67	13
883.762	12
883.82	6
907.711	13
925.681	8
925.727	77
925.76	23
926.711	6
942.755	371
942.815	27
943.717	8
943.771	11
