Mass spectrum: TG 56:7; LC-ESI-QTOF; MS2
Name: TG 56:7
Class:  TAG
Formula: C59H100O6
Exact mass: 905.443
SMILES: CCCCCC\C=C/CCCCCCCCCC(=O)OCC(COC(=O)CCC\C=C/C\C=C/C\C=C/C\C=C/CCCCC)OC(=O)CCCCCCCC\C=C/C=C\CCCCC
InChI: InChI=1S/C59H100O6/c1-4-7-10-13-16-19-22-25-28-29-32-34-37-40-43-46-49-52-58(61)64-55-56(65-59(62)53-50-47-44-41-38-35-31-27-24-21-18-15-12-9-6-3)54-63-57(60)51-48-45-42-39-36-33-30-26-23-20-17-14-11-8-5-2/h16,18-21,23-25,27-28,32,34,40,43,56H,4-15,17,22,26,29-31,33,35-39,41-42,44-55H2,1-3H3/b19-16-,21-18-,23-20-,27-24-,28-25-,34-32-,43-40-
Instrument: AB Sciex TripleTOF 5600+ system (Q-TOF) equipped with a DuoSpray ion source
Instrument type: LC-ESI-QTOF
Ms type: MS2
Ion mode: POSITIVE
Collision energy: 45V
Column name: Acquity UPLC Peptide BEH C18 column (50*2.1 mm; 1.7 um; 130A)(Waters Co.,Milford, MA, USA)
Retention time: 14.27101
Precursor type: [M+NH4]+
Precursor m/z: 922.7828
Intensity: 22869
m/z	relative intensity
79.054	8
81.069	19
83.084	6
85.064	2
85.102	3
91.054	12
93.069	9
95.085	22
97.1	5
105.07	8
107.087	7
109.1	12
111.118	3
117.068	5
119.085	10
121.101	12
123.117	8
129.069	3
131.084	8
133.099	15
135.118	12
137.132	4
143.084	3
145.102	4
147.117	10
149.132	6
151.15	4
153.128	2
157.1	4
159.117	6
161.096	3
161.132	9
163.109	2
163.149	9
165.168	2
171.116	12
173.132	6
175.11	3
175.148	13
177.165	8
185.133	14
187.147	7
189.126	3
189.166	14
191.18	7
199.146	9
201.164	10
203.14	3
203.154	2
203.18	82
213.166	7
215.179	3
227.176	4
227.187	2
241.193	4
243.212	3
245.228	15
247.243	10
259.204	3
259.245	10
263.236	25
265.251	22
267.21	3
269.226	78
271.24	3
285.215	3
285.228	2
287.237	87
288.243	1
289.256	2
295.233	1
301.232	1
311.248	1
313.243	1
313.261	4
313.281	3
315.272	1
317.243	1
319.25	1
319.261	4
319.275	3
325.248	1
337.276	88
339.291	105
343.259	2
343.274	2
359.263	1
361.263	1
361.276	1
361.29	1
369.276	1
391.285	4
393.295	2
393.311	1
491.413	0
497.359	1
499.375	1
527.486	2
531.471	1
533.474	1
547.461	1
549.446	1
549.473	7
551.486	2
557.43	0
567.479	2
573.463	1
573.491	3
573.514	0
575.503	27
597.487	1
599.501	11
599.523	3
599.532	0
599.639	2
599.673	1
601.382	1
601.518	999
602.508	4
602.531	4
603.52	4
603.538	6
603.569	0
605.494	1
615.54	1
619.534	1
621.501	1
623.503	231
624.505	2
625.518	224
626.521	2
627.539	7
629.559	0
639.537	0
641.52	3
643.513	1
643.536	1
649.486	1
649.517	14
649.545	2
651.526	2
677.576	0
683.572	0
697.565	0
711.601	0
725.575	0
741.617	0
767.592	1
767.641	0
779.603	0
779.64	0
781.651	1
793.604	0
807.633	0
807.68	1
821.689	1
839.73	0
840.681	1
840.71	8
840.748	1
887.734	10
887.77	3
887.785	1
902.712	4
902.735	4
902.774	1
905.695	2
905.749	95
905.788	15
906.74	0
906.789	0
913.707	0
919.899	1
922.676	0
922.712	1
922.78	218
923.737	0
923.773	1
923.799	2
923.827	1
