Mass spectrum: TG 51:4; LC-ESI-QTOF; MS2
Name: TG 51:4
Class:  TAG
Formula: C54H96O6
Exact mass: 841.356
SMILES: CCCCCCCCCCCCCCC(=O)OCC(COC(=O)CCCCCCCC\C=C/C=C\CCCCC)OC(=O)CCCCCCCC\C=C/C=C\CCCCC
InChI: InChI=1S/C54H96O6/c1-4-7-10-13-16-19-22-25-27-29-32-35-38-41-44-47-53(56)59-50-51(49-58-52(55)46-43-40-37-34-31-24-21-18-15-12-9-6-3)60-54(57)48-45-42-39-36-33-30-28-26-23-20-17-14-11-8-5-2/h16-17,19-20,22-23,25-26,51H,4-15,18,21,24,27-50H2,1-3H3/b19-16-,20-17-,25-22-,26-23-
Instrument: AB Sciex TripleTOF 5600+ system (Q-TOF) equipped with a DuoSpray ion source
Instrument type: LC-ESI-QTOF
Ms type: MS2
Ion mode: POSITIVE
Collision energy: 45V
Column name: Acquity UPLC Peptide BEH C18 column (50*2.1 mm; 1.7 um; 130A)(Waters Co.,Milford, MA, USA)
Retention time: 14.12414
Precursor type: [M+NH4]+
Precursor m/z: 858.7518
Intensity: 1305
m/z	relative intensity
81.069	38
83.084	19
95.087	19
104.991	121
109.101	19
163.15	19
175.148	19
186.997	130
189.164	20
226.991	38
245.231	19
261.219	33
263.237	39
268.998	63
287.228	9
299.241	10
308.988	9
311.265	14
313.291	9
319.265	23
325.216	54
326.215	23
337.281	14
370.366	9
390.993	43
472.997	47
538.478	28
539.502	19
559.473	69
561.487	999
562.482	20
563.497	44
573.479	111
573.507	68
575.513	91
585.462	19
585.485	82
585.5	38
587.504	121
587.533	29
599.503	403
599.546	42
601.519	33
603.532	19
693.541	39
693.589	49
694.563	469
694.605	10
695.584	24
729.636	9
823.714	19
841.731	62
841.77	42
858.73	48
858.759	87
858.798	33
