Mass spectrum: TG 51:2; LC-ESI-QTOF; MS2
Name: TG 51:2
Class:  TAG
Formula: C54H100O6
Exact mass: 845.3879999999999
SMILES: CCCCCCCCCCCCCCCC(=O)OCC(COC(=O)CCCCCCCCC\C=C/CCCCCC)OC(=O)CCCCC\C=C/CCCCCCCCC
InChI: InChI=1S/C54H100O6/c1-4-7-10-13-16-19-22-25-27-30-32-35-38-41-44-47-53(56)59-50-51(49-58-52(55)46-43-40-37-34-31-28-24-21-18-15-12-9-6-3)60-54(57)48-45-42-39-36-33-29-26-23-20-17-14-11-8-5-2/h19,22,29,33,51H,4-18,20-21,23-28,30-32,34-50H2,1-3H3/b22-19-,33-29-
Instrument: AB Sciex TripleTOF 5600+ system (Q-TOF) equipped with a DuoSpray ion source
Instrument type: LC-ESI-QTOF
Ms type: MS2
Ion mode: POSITIVE
Collision energy: 45V
Column name: Acquity UPLC Peptide BEH C18 column (50*2.1 mm; 1.7 um; 130A)(Waters Co.,Milford, MA, USA)
Retention time: 14.61846
Precursor type: [M+NH4]+
Precursor m/z: 862.785
Intensity: 2463
m/z	relative intensity
81.067	24
83.083	18
95.085	32
97.102	10
109.099	24
123.118	12
135.118	16
137.13	10
186.997	12
226.988	24
233.224	10
239.233	14
247.244	18
251.238	28
263.238	12
265.252	47
269.004	18
279.273	4
292.952	4
299.258	4
309.0	4
313.285	8
319.261	6
325.276	6
327.281	4
339.292	12
374.956	4
390.997	4
474.919	4
549.482	49
561.742	12
563.503	999
564.501	26
565.503	26
565.527	57
575.488	36
575.502	104
577.516	464
577.561	24
578.527	10
589.515	616
590.528	16
591.516	44
591.532	24
591.554	22
603.53	203
603.546	61
617.539	14
845.755	18
862.641	6
862.767	86
862.805	49
863.774	8
