Mass spectrum: BMP 36:2; LC-ESI-QTOF; MS2
Name: BMP 36:2
Class:  BMP
Formula: C42H79O10P
Exact mass: 775.0600000000001
SMILES: CCCCCCCC\C=C/CCCCCCCC(=O)OC(CO)COP(O)(=O)OCC(CO)OC(=O)CCCCCCC\C=C/CCCCCCCC
InChI: InChI=1S/C42H79O10P/c1-3-5-7-9-11-13-15-17-19-21-23-25-27-29-31-33-41(45)51-39(35-43)37-49-53(47,48)50-38-40(36-44)52-42(46)34-32-30-28-26-24-22-20-18-16-14-12-10-8-6-4-2/h17-20,39-40,43-44H,3-16,21-38H2,1-2H3,(H,47,48)/b19-17-,20-18-
Instrument: AB Sciex TripleTOF 5600+ system (Q-TOF) equipped with a DuoSpray ion source
Instrument type: LC-ESI-QTOF
Ms type: MS2
Ion mode: POSITIVE
Collision energy: 45V
Column name: Acquity UPLC Peptide BEH C18 column (50*2.1 mm; 1.7 um; 130A)(Waters Co.,Milford, MA, USA)
Retention time: 8.396775
Precursor type: [M+NH4]+
Precursor m/z: 792.5696
Intensity: 899
m/z	relative intensity
83.085	7
95.053	7
95.088	24
97.095	7
184.076	23
198.972	326
203.177	7
221.231	7
239.238	26
247.246	19
269.223	7
313.275	156
314.279	8
319.254	7
339.291	999
341.301	8
361.268	7
367.282	23
385.276	12
394.884	7
461.193	27
536.243	19
575.496	39
575.502	39
575.509	32
575.516	28
575.523	36
575.53	28
599.46	32
599.473	48
599.48	69
599.487	155
599.494	152
599.501	156
599.512	250
599.525	98
602.528	19
603.513	36
603.526	52
603.536	36
705.457	23
734.536	9
734.559	21
734.586	7
769.495	12
778.53	8
791.459	11
792.455	302
792.481	650
792.514	257
