Mass spectrum: TG 51:2; LC-ESI-QTOF; MS2
Name: TG 51:2
Class:  TAG
Formula: C54H100O6
Exact mass: 845.3879999999999
SMILES: CCCCCCCCCCCCCCC(=O)OCC(COC(=O)CCCCCCCCC\C=C/CCCCCC)OC(=O)CCCCCCCCC\C=C/CCCCCC
InChI: InChI=1S/C54H100O6/c1-4-7-10-13-16-19-22-25-27-29-32-35-38-41-44-47-53(56)59-50-51(49-58-52(55)46-43-40-37-34-31-24-21-18-15-12-9-6-3)60-54(57)48-45-42-39-36-33-30-28-26-23-20-17-14-11-8-5-2/h19-20,22-23,51H,4-18,21,24-50H2,1-3H3/b22-19-,23-20-
Instrument: AB Sciex TripleTOF 5600+ system (Q-TOF) equipped with a DuoSpray ion source
Instrument type: LC-ESI-QTOF
Ms type: MS2
Ion mode: POSITIVE
Collision energy: 45V
Column name: Acquity UPLC Peptide BEH C18 column (50*2.1 mm; 1.7 um; 130A)(Waters Co.,Milford, MA, USA)
Retention time: 14.62194
Precursor type: [M+NH4]+
Precursor m/z: 862.7853
Intensity: 8795
m/z	relative intensity
71.089	5
79.052	11
81.069	24
83.084	16
85.099	7
93.067	6
95.084	39
97.1	20
107.086	5
109.098	18
109.11	6
111.115	9
121.1	14
123.12	8
135.114	14
137.134	7
149.13	8
151.146	6
161.13	4
163.149	9
225.22	8
233.23	7
237.214	5
239.238	20
239.248	9
245.228	6
247.243	16
251.238	19
253.257	8
263.233	15
265.252	49
279.267	2
282.281	1
299.254	1
307.265	3
311.258	1
313.274	21
319.266	5
321.287	2
325.268	7
327.291	5
337.271	1
339.28	3
339.295	9
547.465	8
547.496	4
549.488	66
551.502	5
561.475	24
561.492	15
561.51	11
561.755	6
563.505	999
564.512	3
565.522	213
575.503	321
577.517	472
587.677	5
589.521	797
589.635	3
591.508	26
591.536	128
591.558	31
603.537	241
605.558	5
617.528	4
617.548	4
617.564	11
827.755	6
842.694	3
842.744	18
845.727	6
845.776	10
862.533	1
862.775	83
862.804	63
862.838	5
862.987	1
