Mass spectrum: TG 60:9; LC-ESI-QTOF; MS2
Name: TG 60:9
Class:  TAG
Formula: C63H104O6
Exact mass: 957.519
SMILES: CCCCCCCC\C=C/CCCCCCCCCC(=O)OC(COC(=O)CCCCCCCC\C=C/C=C\CCCCC)COC(=O)CC\C=C/C\C=C/C\C=C/C\C=C/C\C=C/C\C=C/CC
InChI: InChI=1S/C63H104O6/c1-4-7-10-13-16-19-22-25-28-30-31-33-35-38-41-44-47-50-53-56-62(65)68-59-60(58-67-61(64)55-52-49-46-43-40-37-34-27-24-21-18-15-12-9-6-3)69-63(66)57-54-51-48-45-42-39-36-32-29-26-23-20-17-14-11-8-5-2/h7,10,16,18-19,21,24-29,31,33,38,41,47,50,60H,4-6,8-9,11-15,17,20,22-23,30,32,34-37,39-40,42-46,48-49,51-59H2,1-3H3/b10-7-,19-16-,21-18-,27-24-,28-25-,29-26-,33-31-,41-38-,50-47-
Instrument: AB Sciex TripleTOF 5600+ system (Q-TOF) equipped with a DuoSpray ion source
Instrument type: LC-ESI-QTOF
Ms type: MS2
Ion mode: POSITIVE
Collision energy: 45V
Column name: Acquity UPLC Peptide BEH C18 column (50*2.1 mm; 1.7 um; 130A)(Waters Co.,Milford, MA, USA)
Retention time: 14.45461
Precursor type: [M+NH4]+
Precursor m/z: 974.8146
Intensity: 4659
m/z	relative intensity
81.071	13
93.066	10
95.083	26
107.085	11
109.102	9
123.114	13
149.134	8
163.14	14
169.097	11
173.13	14
175.146	11
183.115	11
185.132	9
199.146	11
201.162	13
203.175	9
209.131	9
211.145	10
213.16	14
225.156	9
227.181	16
263.237	10
275.259	6
275.278	4
283.202	4
283.24	8
293.211	10
293.224	44
293.269	4
293.274	10
293.279	7
293.286	16
309.237	3
311.232	75
319.248	7
337.267	23
339.29	8
349.309	4
351.23	7
367.256	7
367.298	8
367.304	11
367.309	11
367.317	28
367.325	13
367.332	13
385.272	4
421.322	5
555.447	4
555.503	4
573.436	4
575.494	8
585.477	4
603.518	4
603.549	12
604.526	12
604.564	3
625.49	8
625.546	5
626.495	8
626.548	6
627.529	10
627.572	6
629.521	185
629.542	999
629.563	160
630.518	7
630.551	18
631.592	5
647.461	87
647.492	207
647.51	49
647.524	28
648.487	9
649.519	17
651.52	4
652.528	11
669.495	8
670.451	9
670.493	18
672.507	4
673.501	10
674.514	4
674.525	3
674.533	5
674.568	3
675.501	10
675.523	16
675.565	6
677.501	31
677.54	230
678.555	5
679.541	4
695.539	4
853.671	2
853.683	2
853.725	3
854.718	8
892.72	6
939.747	6
954.67	13
954.723	235
954.746	233
954.761	97
954.77	95
954.779	88
954.787	73
954.796	58
954.809	76
955.744	6
957.737	9
957.745	13
957.762	34
957.776	17
957.788	31
957.802	13
957.811	11
957.82	7
957.828	8
974.789	164
974.814	178
974.841	46
974.85	39
974.859	25
974.867	24
974.876	14
975.818	6
