Mass spectrum: TG 49:2; LC-ESI-QTOF; MS2
Name: TG 49:2
Class:  TAG
Formula: C52H96O6
Exact mass: 817.3340000000001
SMILES: CCCCCCCCCCCCCCCC(=O)OCC(COC(=O)CCCCC\C=C/CCCCCCCCC)OC(=O)CCCCC\C=C/CCCCCCCC
InChI: InChI=1S/C52H96O6/c1-4-7-10-13-16-19-22-25-28-30-33-36-39-42-45-51(54)57-48-49(58-52(55)46-43-40-37-34-31-27-24-21-18-15-12-9-6-3)47-56-50(53)44-41-38-35-32-29-26-23-20-17-14-11-8-5-2/h27-28,30-31,49H,4-26,29,32-48H2,1-3H3/b30-28-,31-27-
Instrument: AB Sciex TripleTOF 5600+ system (Q-TOF) equipped with a DuoSpray ion source
Instrument type: LC-ESI-QTOF
Ms type: MS2
Ion mode: POSITIVE
Collision energy: 45V
Column name: Acquity UPLC Peptide BEH C18 column (50*2.1 mm; 1.7 um; 130A)(Waters Co.,Milford, MA, USA)
Retention time: 14.3021
Precursor type: [M+NH4]+
Precursor m/z: 834.7557
Intensity: 4142
m/z	relative intensity
71.086	24
81.069	25
83.084	17
85.1	14
95.084	27
109.098	26
111.114	11
121.099	12
123.116	14
125.131	8
137.13	12
175.148	10
211.202	9
225.225	26
237.218	12
239.229	31
239.238	13
239.244	16
245.225	17
251.232	9
263.238	80
265.253	9
279.276	3
299.261	11
307.275	3
313.275	19
319.257	6
327.303	3
337.285	4
339.295	3
533.465	19
535.462	89
535.484	67
535.816	10
537.463	84
537.483	720
537.502	116
547.437	12
547.445	13
547.474	109
549.464	19
549.484	135
549.517	13
551.504	14
559.717	11
561.465	114
561.487	999
563.472	14
563.479	22
563.499	166
563.519	26
575.502	803
575.522	123
577.512	24
579.522	10
589.514	132
589.531	29
589.54	22
603.538	19
617.552	11
817.716	6
834.492	3
834.709	10
834.72	12
834.741	24
834.757	63
