Mass spectrum: TG 58:9; LC-ESI-QTOF; MS2
Name: TG 58:9
Class:  TAG
Formula: C61H100O6
Exact mass: 929.4649999999999
SMILES: CCCCCC\C=C/CCCCCCCCCC(=O)OCC(COC(=O)CC\C=C/C\C=C/C\C=C/C\C=C/C\C=C/C\C=C/CC)OC(=O)CCCCCCCC\C=C/C=C\CCCCC
InChI: InChI=1S/C61H100O6/c1-4-7-10-13-16-19-22-25-28-29-30-31-34-36-39-42-45-48-51-54-60(63)66-57-58(67-61(64)55-52-49-46-43-40-37-33-27-24-21-18-15-12-9-6-3)56-65-59(62)53-50-47-44-41-38-35-32-26-23-20-17-14-11-8-5-2/h7,10,16,18-21,23-25,27-28,30-31,36,39,45,48,58H,4-6,8-9,11-15,17,22,26,29,32-35,37-38,40-44,46-47,49-57H2,1-3H3/b10-7-,19-16-,21-18-,23-20-,27-24-,28-25-,31-30-,39-36-,48-45-
Instrument: AB Sciex TripleTOF 5600+ system (Q-TOF) equipped with a DuoSpray ion source
Instrument type: LC-ESI-QTOF
Ms type: MS2
Ion mode: POSITIVE
Collision energy: 45V
Column name: Acquity UPLC Peptide BEH C18 column (50*2.1 mm; 1.7 um; 130A)(Waters Co.,Milford, MA, USA)
Retention time: 14.1751
Precursor type: [M+NH4]+
Precursor m/z: 946.786
Intensity: 8114
m/z	relative intensity
79.054	7
81.07	19
83.084	9
91.053	9
93.071	8
95.084	20
97.099	8
107.088	11
109.1	11
119.085	8
121.102	15
123.118	7
133.102	6
135.116	9
149.134	6
161.132	10
169.1	7
171.118	9
175.153	11
185.131	7
187.147	8
195.116	6
201.165	16
209.131	7
211.146	7
213.167	9
215.178	6
223.145	7
227.179	12
237.167	6
245.227	7
247.242	10
263.235	20
263.247	14
265.256	29
267.217	6
269.229	9
283.208	2
283.244	2
291.218	3
293.226	28
295.241	2
309.219	2
311.226	10
311.238	45
311.27	2
313.268	1
319.268	6
321.281	3
337.275	29
339.289	29
367.249	2
367.271	3
383.253	1
385.276	2
391.276	4
393.302	2
499.378	2
555.461	2
557.456	2
573.468	3
575.47	2
575.491	3
575.516	2
576.502	6
576.523	3
577.512	8
591.466	2
599.505	7
599.632	3
601.518	999
601.608	2
603.529	8
623.49	5
625.517	4
645.474	3
647.5	212
648.499	3
649.516	182
651.532	3
665.518	6
667.533	2
673.522	3
709.575	0
749.605	0
755.622	0
775.632	0
803.651	0
807.656	0
817.627	0
825.686	0
826.694	1
851.708	0
863.712	0
864.71	3
878.73	2
905.725	2
911.75	7
922.794	1
927.709	0
929.718	8
929.751	29
929.781	26
946.78	204
946.807	60
947.01	1
