Mass spectrum: TG 49:3; LC-ESI-QTOF; MS2
Name: TG 49:3
Class:  TAG
Formula: C52H94O6
Exact mass: 815.318
SMILES: CCCCCCCC\C=C/CCCCCC(=O)OC(COC(=O)CCCCCCCCC\C=C/CCCCCC)COC(=O)CCCCCCC\C=C/CCCCC
InChI: InChI=1S/C52H94O6/c1-4-7-10-13-16-19-22-25-26-28-30-33-36-39-42-45-51(54)57-48-49(47-56-50(53)44-41-38-35-32-29-24-21-18-15-12-9-6-3)58-52(55)46-43-40-37-34-31-27-23-20-17-14-11-8-5-2/h18-19,21-22,27,31,49H,4-17,20,23-26,28-30,32-48H2,1-3H3/b21-18-,22-19-,31-27-
Instrument: AB Sciex TripleTOF 5600+ system (Q-TOF) equipped with a DuoSpray ion source
Instrument type: LC-ESI-QTOF
Ms type: MS2
Ion mode: POSITIVE
Collision energy: 45V
Column name: Acquity UPLC Peptide BEH C18 column (50*2.1 mm; 1.7 um; 130A)(Waters Co.,Milford, MA, USA)
Retention time: 14.04809
Precursor type: [M+NH4]+
Precursor m/z: 832.7484
Intensity: 2106
m/z	relative intensity
81.072	71
83.084	39
85.103	37
93.073	29
95.088	86
97.102	33
109.097	53
109.104	52
111.119	29
121.104	64
123.116	33
135.115	33
137.134	29
175.146	44
177.159	34
203.192	25
221.188	83
237.207	44
237.23	48
239.236	37
245.225	33
251.232	30
263.225	48
263.25	37
265.244	29
285.26	12
293.233	11
295.237	12
297.244	14
299.255	18
311.254	52
313.242	22
313.269	121
313.298	18
319.265	12
337.282	22
339.267	26
339.281	75
339.3	79
367.291	7
407.349	7
533.419	79
533.437	109
533.464	222
533.486	41
533.52	29
535.429	49
535.456	526
535.476	405
535.497	163
535.52	41
537.477	29
547.461	636
547.491	83
547.511	71
549.463	41
549.502	33
559.46	290
559.494	79
561.471	999
561.509	393
573.465	283
573.489	250
573.507	72
573.528	71
575.487	75
575.509	90
575.538	37
577.486	232
577.509	307
577.527	214
577.562	52
587.458	56
587.474	86
587.493	124
587.518	87
587.535	63
589.496	44
589.534	55
601.495	56
601.534	48
731.675	7
797.662	14
797.708	20
815.693	29
815.761	22
832.703	67
832.732	52
832.755	94
832.792	22
832.854	7
