Mass spectrum: TG 56:6; LC-ESI-QTOF; MS2
Name: TG 56:6
Class:  TAG
Formula: C59H102O6
Exact mass: 907.4590000000001
SMILES: CCCCCCCCCCCCCCCC(=O)OCC(COC(=O)CCCCC\C=C/C\C=C/C\C=C/C\C=C/C\C=C/CC)OC(=O)CCCCCCCCC\C=C/CCCCCC
InChI: InChI=1S/C59H102O6/c1-4-7-10-13-16-19-22-25-27-28-29-30-32-34-37-40-43-46-49-52-58(61)64-55-56(54-63-57(60)51-48-45-42-39-36-33-24-21-18-15-12-9-6-3)65-59(62)53-50-47-44-41-38-35-31-26-23-20-17-14-11-8-5-2/h7,10,16,19-20,23,25,27,29-30,34,37,56H,4-6,8-9,11-15,17-18,21-22,24,26,28,31-33,35-36,38-55H2,1-3H3/b10-7-,19-16-,23-20-,27-25-,30-29-,37-34-
Instrument: AB Sciex TripleTOF 5600+ system (Q-TOF) equipped with a DuoSpray ion source
Instrument type: LC-ESI-QTOF
Ms type: MS2
Ion mode: POSITIVE
Collision energy: 45V
Column name: Acquity UPLC Peptide BEH C18 column (50*2.1 mm; 1.7 um; 130A)(Waters Co.,Milford, MA, USA)
Retention time: 14.49525
Precursor type: [M+NH4]+
Precursor m/z: 924.7964
Intensity: 6409
m/z	relative intensity
79.055	10
81.071	25
83.087	15
91.056	22
93.069	19
95.082	23
95.089	10
97.098	11
109.101	12
117.071	10
119.081	14
121.099	15
123.118	11
131.087	11
133.101	13
135.117	12
151.149	10
157.102	10
161.135	10
163.15	13
171.12	14
175.146	20
185.13	15
187.15	14
189.164	22
199.148	12
201.167	14
203.179	68
247.239	17
263.232	12
265.249	36
269.228	85
285.228	6
287.224	25
287.239	71
287.256	18
295.24	6
297.256	9
311.258	4
313.245	9
313.268	16
313.286	15
315.277	12
337.275	19
337.295	7
339.284	128
339.3	63
341.307	9
343.263	5
371.304	5
393.293	5
393.307	9
501.396	4
551.492	9
575.501	125
577.517	158
597.481	5
599.513	25
601.51	20
601.638	5
602.615	4
603.533	999
604.535	5
623.507	29
625.517	455
627.5	6
627.534	92
643.531	5
651.509	20
651.532	62
651.551	49
651.59	7
729.599	2
755.629	2
781.658	2
827.704	2
842.737	4
855.714	2
856.741	4
863.734	2
881.758	9
889.759	14
898.789	6
907.732	11
907.775	117
907.826	15
924.518	4
924.732	3
924.781	132
924.807	183
924.84	27
