Mass spectrum: TG 56:5; LC-ESI-QTOF; MS2
Name: TG 56:5
Class:  TAG
Formula: C59H104O6
Exact mass: 909.475
SMILES: CCCCCC\C=C/CCCCCCCCCC(=O)OCC(COC(=O)CCCCCCCCC\C=C/C\C=C/CCCCC)OC(=O)CCCCCCCC\C=C/C=C\CCCCC
InChI: InChI=1S/C59H104O6/c1-4-7-10-13-16-19-22-25-28-29-32-34-37-40-43-46-49-52-58(61)64-55-56(65-59(62)53-50-47-44-41-38-35-31-27-24-21-18-15-12-9-6-3)54-63-57(60)51-48-45-42-39-36-33-30-26-23-20-17-14-11-8-5-2/h16,18-21,23-25,27-28,56H,4-15,17,22,26,29-55H2,1-3H3/b19-16-,21-18-,23-20-,27-24-,28-25-
Instrument: AB Sciex TripleTOF 5600+ system (Q-TOF) equipped with a DuoSpray ion source
Instrument type: LC-ESI-QTOF
Ms type: MS2
Ion mode: POSITIVE
Collision energy: 45V
Column name: Acquity UPLC Peptide BEH C18 column (50*2.1 mm; 1.7 um; 130A)(Waters Co.,Milford, MA, USA)
Retention time: 14.63224
Precursor type: [M+NH4]+
Precursor m/z: 926.8134
Intensity: 20792
m/z	relative intensity
79.053	3
81.068	18
83.083	8
85.1	1
91.054	3
93.069	7
95.084	23
97.1	6
99.079	2
105.07	2
107.084	5
109.099	13
111.116	3
113.097	2
119.082	3
121.1	8
123.114	9
131.085	1
133.1	4
135.112	9
135.121	3
137.132	5
147.118	3
149.131	6
151.146	3
153.127	2
159.111	1
161.133	7
163.147	7
165.162	2
173.137	1
175.147	8
177.164	5
179.179	1
187.142	1
189.161	4
191.178	1
203.178	1
243.211	3
245.224	15
247.235	2
247.247	2
249.184	1
261.218	11
263.236	50
265.252	11
271.238	3
271.249	1
273.253	1
275.272	5
277.217	1
287.238	0
289.252	10
291.268	7
293.281	22
301.254	0
313.268	2
317.246	4
319.258	10
319.271	3
321.278	1
335.257	2
337.271	17
339.288	9
345.26	1
345.278	2
347.291	2
349.307	1
363.282	1
365.297	2
365.319	1
367.315	19
391.275	0
525.471	4
543.466	2
543.484	1
552.487	1
553.495	4
555.517	3
559.459	1
571.475	1
573.501	1
573.528	1
575.502	3
577.508	1
578.535	2
579.524	2
580.524	2
580.549	1
581.533	3
599.501	565
600.48	1
600.496	2
600.514	3
601.517	159
602.5	1
602.53	1
603.534	54
604.527	3
604.548	2
605.539	3
606.565	2
607.538	1
613.522	1
617.549	1
624.497	1
625.484	1
625.519	4
627.531	284
628.521	1
629.546	999
630.53	4
630.551	10
631.561	36
641.537	1
643.563	2
645.544	1
652.529	2
653.511	1
653.528	2
653.551	3
655.553	2
655.576	1
671.522	0
671.578	0
673.53	0
683.583	0
687.539	0
687.57	0
699.572	0
701.549	0
701.588	0
713.635	0
727.59	0
753.648	0
755.607	0
769.61	0
771.645	0
783.679	0
797.657	1
797.696	1
799.681	0
811.669	1
811.7	1
825.693	1
825.736	0
827.713	0
839.704	1
841.723	1
844.7	0
844.726	0
844.763	0
867.711	1
867.742	2
867.781	1
873.786	0
891.737	2
891.754	6
891.779	8
891.804	3
892.763	0
906.947	0
908.76	0
909.787	177
910.747	0
910.781	2
910.819	1
923.891	0
926.709	0
926.811	158
926.836	59
927.79	1
927.817	2
927.851	1
