Mass spectrum: TG 50:4; LC-ESI-QTOF; MS2
Name: TG 50:4
Class:  TAG
Formula: C53H94O6
Exact mass: 827.329
SMILES: CCCCCCCC\C=C/CCCCCC(=O)OCC(COC(=O)CCCCCCCC\C=C/C=C\CCCCC)OC(=O)CCCCC\C=C/CCCCCCCC
InChI: InChI=1S/C53H94O6/c1-4-7-10-13-16-19-22-25-26-29-31-34-37-40-43-46-52(55)58-49-50(59-53(56)47-44-41-38-35-32-28-24-21-18-15-12-9-6-3)48-57-51(54)45-42-39-36-33-30-27-23-20-17-14-11-8-5-2/h16,19,22,25,27-28,30,32,50H,4-15,17-18,20-21,23-24,26,29,31,33-49H2,1-3H3/b19-16-,25-22-,30-27-,32-28-
Instrument: AB Sciex TripleTOF 5600+ system (Q-TOF) equipped with a DuoSpray ion source
Instrument type: LC-ESI-QTOF
Ms type: MS2
Ion mode: POSITIVE
Collision energy: 45V
Column name: Acquity UPLC Peptide BEH C18 column (50*2.1 mm; 1.7 um; 130A)(Waters Co.,Milford, MA, USA)
Retention time: 13.97508
Precursor type: [M+NH4]+
Precursor m/z: 844.7383
Intensity: 43429
m/z	relative intensity
71.048	0
71.085	5
77.038	1
79.053	7
81.069	31
83.049	0
83.085	10
85.064	1
85.101	4
91.053	4
93.07	10
95.049	0
95.084	33
97.064	1
97.101	9
99.08	2
99.115	0
101.098	0
105.069	3
107.085	8
108.768	0
109.065	0
109.101	20
111.08	1
111.116	5
113.096	1
113.132	0
115.111	0
117.07	0
119.084	3
121.1	16
123.08	0
123.116	15
125.096	1
125.133	1
127.112	1
127.149	0
129.068	0
131.085	1
133.101	6
135.116	14
137.096	0
137.132	9
139.111	1
139.146	0
141.128	0
143.087	0
145.101	1
147.116	5
149.094	0
149.132	9
151.112	0
151.148	3
153.126	2
153.163	0
155.141	0
157.1	0
159.116	2
161.132	9
163.111	0
163.148	10
165.128	0
165.163	2
167.143	1
169.159	0
171.116	0
173.132	4
175.109	0
175.147	10
177.127	0
177.164	5
179.143	1
179.18	1
181.121	0
181.158	0
182.191	0
183.118	0
185.133	0
187.148	2
189.164	5
191.147	0
191.18	2
193.124	0
193.158	1
193.195	1
195.138	0
195.173	0
197.133	0
199.149	0
201.165	1
203.142	0
203.18	2
205.16	0
205.194	0
207.137	0
207.175	1
207.208	0
209.154	0
209.19	1
211.15	0
211.205	22
213.162	0
215.179	0
217.159	0
217.194	2
219.177	0
219.21	10
221.152	0
221.189	0
221.227	1
223.166	0
227.179	0
228.231	0
229.159	0
229.194	0
229.205	0
229.215	0
231.175	0
231.211	0
233.187	0
233.197	0
233.227	1
235.169	0
235.207	3
235.244	0
236.491	0
237.18	0
237.189	0
237.222	28
239.238	7
241.195	0
243.175	0
243.211	7
244.47	0
245.188	0
245.226	19
247.169	0
247.205	0
247.242	1
249.185	0
249.224	0
249.262	0
251.194	0
251.235	0
253.188	0
254.249	0
255.211	0
256.266	0
257.193	0
257.228	0
257.247	0
259.204	0
259.243	0
260.412	0
261.183	0
261.222	36
261.266	0
262.415	0
263.196	0
263.237	59
265.22	0
265.253	5
267.221	0
269.0	0
269.252	0
271.199	0
271.246	0
273.222	0
273.25	0
273.263	0
275.198	0
275.236	0
275.274	0
277.215	0
277.257	0
279.232	0
280.265	0
281.219	0
283.228	0
283.243	0
285.241	19
286.224	0
287.237	0
287.272	0
289.216	0
289.251	1
289.269	0
289.295	0
291.232	0
291.27	0
293.248	1
295.262	0
297.237	0
297.271	0
299.237	1
301.254	1
301.289	0
303.226	0
303.243	0
303.267	0
305.241	0
305.255	0
307.227	0
307.262	0
309.242	0
311.257	18
313.274	7
314.278	0
315.23	0
315.273	0
315.301	0
317.249	11
318.272	0
319.264	13
321.28	0
325.26	0
327.265	0
329.249	0
329.268	0
329.289	0
329.319	0
331.262	0
331.301	0
333.232	0
333.246	0
333.272	0
333.314	0
335.218	0
335.259	4
336.239	0
337.274	21
339.252	0
339.292	5
341.297	0
341.317	0
343.297	0
345.269	0
345.285	0
345.321	0
347.293	0
347.336	0
349.239	0
349.271	0
349.308	0
351.257	0
353.265	0
353.315	0
355.305	0
357.278	0
357.306	0
359.284	0
359.297	0
359.32	0
359.336	0
361.272	0
361.305	0
363.252	0
363.303	0
363.327	0
365.27	0
365.301	0
369.35	0
371.329	0
373.311	0
373.343	0
373.363	0
375.337	0
377.273	0
377.345	0
381.305	0
381.352	0
383.324	0
385.311	0
385.346	0
387.325	0
387.351	0
387.365	0
389.341	0
391.277	0
391.295	0
391.358	0
393.294	0
395.311	0
395.372	0
397.355	0
399.308	0
399.362	0
399.378	0
401.335	0
401.363	0
401.39	0
403.287	0
403.346	0
403.371	0
405.292	0
405.306	0
405.329	0
407.308	0
409.326	0
409.345	0
411.355	0
413.337	0
413.371	0
413.393	0
415.359	0
417.296	0
417.344	0
417.374	0
419.32	0
421.32	0
423.323	0
423.352	0
423.373	0
427.349	0
427.375	0
427.398	0
429.373	0
429.4	0
431.35	0
431.364	0
431.378	0
431.398	0
433.34	0
435.348	0
435.381	0
437.366	0
439.386	0
441.367	0
441.382	0
441.405	0
443.375	0
443.395	0
445.331	0
445.353	0
445.387	0
445.435	0
447.352	0
447.393	0
449.359	0
449.373	0
451.38	0
453.412	0
455.398	0
455.425	0
455.441	0
457.395	0
459.33	0
459.346	0
459.366	0
459.388	0
461.362	0
461.396	0
463.377	0
465.372	0
465.401	0
471.417	0
473.436	1
475.374	0
475.389	0
477.398	0
479.42	0
481.436	0
481.456	0
487.37	0
487.391	0
489.392	0
489.444	0
491.408	0
491.44	0
497.44	2
499.449	3
501.395	0
501.414	0
503.408	0
505.434	0
507.43	0
507.452	0
507.468	0
515.41	0
515.435	0
515.456	0
517.412	0
517.429	0
517.455	1
517.479	0
519.432	0
519.45	0
521.46	3
523.472	0
524.473	0
525.469	5
529.429	0
531.445	0
533.437	0
533.46	0
535.474	0
543.467	1
543.486	2
545.456	92
545.767	2
545.798	0
547.472	999
548.474	1
549.489	196
550.484	0
550.503	0
555.486	0
559.471	1
561.493	1
563.479	0
563.504	0
569.692	0
570.469	0
571.473	178
571.697	1
571.721	0
571.73	0
572.475	0
573.487	620
574.49	1
575.504	59
577.513	0
577.535	0
579.519	0
581.497	0
587.502	0
589.475	0
589.509	0
589.535	0
591.504	0
597.609	0
597.636	0
597.653	0
599.505	450
600.503	0
601.519	35
603.516	0
603.538	2
605.473	0
615.491	0
617.491	0
617.519	1
619.482	0
619.505	0
627.515	0
627.534	0
629.541	0
633.495	0
645.521	0
647.514	0
657.575	0
671.562	0
671.595	0
671.622	0
673.519	0
673.54	0
673.564	0
675.56	0
683.594	0
685.604	0
687.536	0
687.565	0
687.584	0
689.565	0
689.588	0
697.593	0
699.612	0
701.552	0
701.582	0
701.609	0
701.633	0
703.592	0
705.605	0
711.619	0
715.567	0
715.592	0
715.614	0
715.655	0
717.613	0
717.641	0
729.601	0
729.635	0
731.619	0
735.667	0
743.577	0
743.619	0
743.649	0
743.668	0
757.597	0
757.63	0
757.653	0
757.673	0
771.641	0
771.681	0
785.666	0
785.692	0
791.697	0
791.732	0
809.702	18
810.717	0
825.114	0
825.133	0
826.747	0
827.714	91
828.015	0
828.689	0
828.726	0
828.765	0
842.042	0
842.085	0
842.109	0
842.138	0
844.575	0
844.741	127
844.908	0
845.723	0
845.758	0
849.699	0
