Mass spectrum: TG 58:4; LC-ESI-QTOF; MS2
Name: TG 58:4
Class:  TAG
Formula: C61H110O6
Exact mass: 939.545
SMILES: CCCCCCCCCC\C=C/CCCCCCCCCC(=O)OCC(COC(=O)CCCCCCCCC\C=C/CCCCCC)OC(=O)CCCCCCCC\C=C/C=C\CCCCC
InChI: InChI=1S/C61H110O6/c1-4-7-10-13-16-19-22-25-28-29-30-31-34-36-39-42-45-48-51-54-60(63)66-57-58(67-61(64)55-52-49-46-43-40-37-33-27-24-21-18-15-12-9-6-3)56-65-59(62)53-50-47-44-41-38-35-32-26-23-20-17-14-11-8-5-2/h18,20-21,23-24,27,29-30,58H,4-17,19,22,25-26,28,31-57H2,1-3H3/b21-18-,23-20-,27-24-,30-29-
Instrument: AB Sciex TripleTOF 5600+ system (Q-TOF) equipped with a DuoSpray ion source
Instrument type: LC-ESI-QTOF
Ms type: MS2
Ion mode: POSITIVE
Collision energy: 45V
Column name: Acquity UPLC Peptide BEH C18 column (50*2.1 mm; 1.7 um; 130A)(Waters Co.,Milford, MA, USA)
Retention time: 15.28122
Precursor type: [M+NH4]+
Precursor m/z: 956.8649
Intensity: 1564
m/z	relative intensity
81.073	43
109.102	25
121.102	31
123.114	38
247.249	18
263.24	87
265.259	50
291.266	12
303.315	12
319.258	25
321.308	12
339.288	40
367.317	12
395.353	39
573.493	50
599.502	63
599.623	38
601.495	116
601.52	999
601.544	70
601.551	50
601.558	38
603.538	71
629.555	505
629.571	127
629.578	70
631.563	50
655.552	50
657.553	71
657.56	147
657.567	187
657.574	219
657.581	265
657.597	507
659.573	104
659.58	231
659.588	241
659.603	992
659.62	214
659.627	139
683.587	63
685.596	12
685.61	12
685.633	12
898.798	20
921.838	25
939.797	12
939.84	164
939.879	12
956.833	18
956.875	242
956.911	38
