Mass spectrum: ChE 20:5; LC-ESI-QTOF; MS2
Name: ChE 20:5
Class:  CE
Formula: C47H74O2
Exact mass: 671.107
SMILES: CC\C=C/C\C=C/C\C=C/C\C=C/C\C=C/CCCC(=O)O[C@H]1CC[C@]2(C)[C@H]3CC[C@]4(C)[C@H](CC[C@H]4[C@@H]3CC=C2C1)[C@H](C)CCCC(C)C
InChI: InChI=1S/C47H74O2/c1-7-8-9-10-11-12-13-14-15-16-17-18-19-20-21-22-23-27-45(48)49-40-32-34-46(5)39(36-40)28-29-41-43-31-30-42(38(4)26-24-25-37(2)3)47(43,6)35-33-44(41)46/h8-9,11-12,14-15,17-18,20-21,28,37-38,40-44H,7,10,13,16,19,22-27,29-36H2,1-6H3/b9-8-,12-11-,15-14-,18-17-,21-20-/t38-,40+,41+,42-,43+,44+,46+,47-/m1/s1
Instrument: AB Sciex TripleTOF 5600+ system (Q-TOF) equipped with a DuoSpray ion source
Instrument type: LC-ESI-QTOF
Ms type: MS2
Ion mode: POSITIVE
Collision energy: 45V
Column name: Acquity UPLC Peptide BEH C18 column (50*2.1 mm; 1.7 um; 130A)(Waters Co.,Milford, MA, USA)
Retention time: 14.14586
Precursor type: [M+NH4]+
Precursor m/z: 688.6013
Intensity: 4088
m/z	relative intensity
81.07	27
95.085	33
109.1	33
121.101	24
133.102	17
135.116	45
147.117	50
149.132	24
161.131	78
175.148	71
177.165	17
179.177	16
187.147	24
189.167	34
201.157	16
203.176	35
205.196	23
215.178	53
217.195	24
219.209	27
229.199	19
233.226	28
243.212	37
247.248	25
257.231	17
259.236	21
259.249	24
273.261	21
285.256	6
287.269	23
287.281	22
292.956	4
299.277	8
302.972	8
313.271	5
313.298	7
360.946	4
368.216	6
368.943	4
369.313	9
369.351	999
466.975	3
530.914	2
688.439	3
