Mass spectrum: PG 36:4; LC-ESI-QTOF; MS2
Name: PG 36:4
Class:  PG
Formula: C42H75O10P
Exact mass: 771.028
SMILES: CCCCCCCCCCCCCCCC(=O)OCC(COP(O)(=O)OCC(O)CO)OC(=O)CCCCCC\C=C/C\C=C/C\C=C/C\C=C/CC
InChI: InChI=1S/C42H75O10P/c1-3-5-7-9-11-13-15-17-18-19-20-22-24-26-28-30-32-34-42(46)52-40(38-51-53(47,48)50-36-39(44)35-43)37-49-41(45)33-31-29-27-25-23-21-16-14-12-10-8-6-4-2/h5,7,11,13,17-18,20,22,39-40,43-44H,3-4,6,8-10,12,14-16,19,21,23-38H2,1-2H3,(H,47,48)/b7-5-,13-11-,18-17-,22-20-
Instrument: AB Sciex TripleTOF 5600+ system (Q-TOF) equipped with a DuoSpray ion source
Instrument type: LC-ESI-QTOF
Ms type: MS2
Ion mode: POSITIVE
Collision energy: 45V
Column name: Acquity UPLC Peptide BEH C18 column (50*2.1 mm; 1.7 um; 130A)(Waters Co.,Milford, MA, USA)
Retention time: 8.347827
Precursor type: [M+NH4]+
Precursor m/z: 788.541
Intensity: 914
m/z	relative intensity
91.057	12
95.083	11
117.066	16
119.085	28
135.118	12
184.071	33
186.995	11
197.009	11
203.175	16
239.238	39
269.229	28
311.267	11
313.273	320
313.302	16
361.275	28
367.288	16
435.35	11
599.499	999
599.519	261
599.531	104
602.525	12
603.54	47
