Mass spectrum: TG 49:4; LC-ESI-QTOF; MS2
Name: TG 49:4
Class:  TAG
Formula: C52H92O6
Exact mass: 813.302
SMILES: CCCCCCCCCCCCC(=O)OCC(COC(=O)CCCCCCCC\C=C/C=C\CCCCC)OC(=O)CCCCCCCC\C=C/C=C\CCCCC
InChI: InChI=1S/C52H92O6/c1-4-7-10-13-16-19-22-24-26-28-30-33-36-39-42-45-51(54)57-48-49(47-56-50(53)44-41-38-35-32-21-18-15-12-9-6-3)58-52(55)46-43-40-37-34-31-29-27-25-23-20-17-14-11-8-5-2/h16-17,19-20,22-25,49H,4-15,18,21,26-48H2,1-3H3/b19-16-,20-17-,24-22-,25-23-
Instrument: AB Sciex TripleTOF 5600+ system (Q-TOF) equipped with a DuoSpray ion source
Instrument type: LC-ESI-QTOF
Ms type: MS2
Ion mode: POSITIVE
Collision energy: 45V
Column name: Acquity UPLC Peptide BEH C18 column (50*2.1 mm; 1.7 um; 130A)(Waters Co.,Milford, MA, USA)
Retention time: 13.83168
Precursor type: [M+NH4]+
Precursor m/z: 830.7209
Intensity: 2333
m/z	relative intensity
81.069	111
83.087	48
95.084	73
109.102	170
123.117	100
135.115	32
161.132	44
163.146	44
165.13	33
175.147	81
203.181	155
221.184	118
221.196	110
239.235	40
263.236	110
311.258	32
313.274	267
317.251	10
319.268	14
337.273	248
337.286	59
339.288	18
344.99	10
405.314	10
427.347	12
465.396	14
489.41	27
501.396	22
531.444	48
533.432	132
533.459	771
535.472	126
545.444	62
545.467	36
547.469	58
557.442	283
557.464	272
559.466	200
559.487	41
561.482	48
571.46	59
571.492	33
573.486	88
573.507	52
575.478	180
575.5	999
575.517	384
585.479	70
585.504	44
587.505	33
599.501	134
599.539	29
601.523	36
701.579	7
748.652	18
757.634	19
771.65	10
772.651	14
795.692	22
797.637	96
797.67	62
812.8	14
813.666	37
813.695	40
813.72	55
830.692	59
830.725	226
830.761	37
