Mass spectrum: TG 54:3; LC-ESI-QTOF; MS2
Name: TG 54:3
Class:  TAG
Formula: C57H104O6
Exact mass: 885.453
SMILES: CCCCCCCCCCCCCCCC(=O)OCC(COC(=O)CCCCCCCCC\C=C/CCCCCCCC)OC(=O)CCCCCCCC\C=C/C=C\CCCCC
InChI: InChI=1S/C57H104O6/c1-4-7-10-13-16-19-22-25-27-28-30-32-35-38-41-44-47-50-56(59)62-53-54(52-61-55(58)49-46-43-40-37-34-31-24-21-18-15-12-9-6-3)63-57(60)51-48-45-42-39-36-33-29-26-23-20-17-14-11-8-5-2/h17,20,23,25-27,54H,4-16,18-19,21-22,24,28-53H2,1-3H3/b20-17-,26-23-,27-25-
Instrument: AB Sciex TripleTOF 5600+ system (Q-TOF) equipped with a DuoSpray ion source
Instrument type: LC-ESI-QTOF
Ms type: MS2
Ion mode: POSITIVE
Collision energy: 45V
Column name: Acquity UPLC Peptide BEH C18 column (50*2.1 mm; 1.7 um; 130A)(Waters Co.,Milford, MA, USA)
Retention time: 14.86087
Precursor type: [M+NH4]+
Precursor m/z: 902.8163
Intensity: 16908
m/z	relative intensity
71.084	1
77.037	0
79.054	2
81.069	9
83.084	6
85.063	0
85.101	1
91.055	0
93.069	2
95.085	12
97.064	0
97.1	5
99.079	0
107.085	2
109.1	8
111.077	0
111.116	3
113.094	0
119.085	0
121.101	6
123.116	4
125.095	0
125.131	0
127.11	0
133.098	0
135.116	6
137.13	2
139.109	0
141.129	0
147.117	0
149.132	3
151.146	2
153.126	1
161.132	1
163.147	3
165.162	2
167.144	0
175.148	1
177.163	2
179.18	1
181.158	0
189.167	0
191.181	1
195.172	0
203.181	0
205.192	0
205.201	0
209.193	0
217.194	0
219.216	0
237.22	0
239.237	4
245.223	3
247.241	11
249.26	0
263.236	10
265.253	42
266.254	1
267.265	2
273.258	0
275.27	1
275.286	0
282.28	0
283.261	0
291.268	1
293.282	4
301.252	0
303.272	0
311.259	0
313.278	3
319.246	0
319.264	1
321.264	0
321.282	1
323.291	0
335.261	0
337.271	1
337.285	0
337.297	0
339.29	20
340.297	0
341.303	3
341.338	0
347.294	0
348.983	0
349.298	0
365.307	0
367.316	1
367.33	1
390.991	0
511.498	0
519.441	0
527.483	0
529.5	1
529.517	0
547.479	0
549.472	0
555.496	0
555.526	0
573.473	0
573.491	1
573.51	0
573.535	0
573.713	0
575.503	112
576.491	0
576.512	2
577.522	39
578.526	0
578.542	0
580.531	0
581.526	0
581.555	0
589.518	0
591.523	0
601.52	107
601.599	0
601.632	0
601.646	1
601.669	1
602.519	3
602.564	0
602.708	0
603.432	0
603.533	999
603.979	0
604.541	32
604.65	0
605.55	173
606.541	2
606.565	2
617.546	0
619.573	0
627.563	0
627.592	0
629.551	136
630.537	1
630.564	3
631.565	15
632.556	0
632.597	0
633.597	0
647.568	0
657.588	0
675.58	0
675.648	0
759.643	0
773.671	0
787.702	0
801.745	0
867.732	0
867.773	2
867.808	0
867.83	0
868.775	0
881.752	0
882.767	0
885.747	1
885.793	21
886.799	0
886.844	0
899.982	0
900.044	0
902.515	0
902.818	100
902.916	0
903.805	2
903.84	2
