Mass spectrum: TG 52:6; LC-ESI-QTOF; MS2
Name: TG 52:6
Class:  TAG
Formula: C55H94O6
Exact mass: 851.3509999999999
SMILES: CCCCCCCC\C=C/CCCCCC(=O)OCC(COC(=O)CCCCCCCCC\C=C/C=C\C=C/CC)OC(=O)CCCCCCCC\C=C/C=C\CCCCC
InChI: InChI=1S/C55H94O6/c1-4-7-10-13-16-19-22-25-27-30-33-36-39-42-45-48-54(57)60-51-52(50-59-53(56)47-44-41-38-35-32-29-24-21-18-15-12-9-6-3)61-55(58)49-46-43-40-37-34-31-28-26-23-20-17-14-11-8-5-2/h7,10,13,16-17,19-20,22-23,26,29,32,52H,4-6,8-9,11-12,14-15,18,21,24-25,27-28,30-31,33-51H2,1-3H3/b10-7-,16-13-,20-17-,22-19-,26-23-,32-29-
Instrument: AB Sciex TripleTOF 5600+ system (Q-TOF) equipped with a DuoSpray ion source
Instrument type: LC-ESI-QTOF
Ms type: MS2
Ion mode: POSITIVE
Collision energy: 45V
Column name: Acquity UPLC Peptide BEH C18 column (50*2.1 mm; 1.7 um; 130A)(Waters Co.,Milford, MA, USA)
Retention time: 13.83609
Precursor type: [M+NH4]+
Precursor m/z: 868.736
Intensity: 197373
m/z	relative intensity
71.049	1
71.085	2
77.038	5
79.054	18
81.069	60
83.047	1
83.085	19
85.063	3
85.101	2
91.053	13
93.069	31
95.051	0
95.085	57
97.064	3
97.1	13
99.08	5
105.069	11
107.085	24
109.061	0
109.101	37
111.079	5
111.103	0
111.116	5
113.095	4
117.069	3
119.084	14
121.101	45
123.081	1
123.116	29
125.095	3
125.132	1
127.11	2
131.085	9
133.1	18
135.116	39
137.093	0
137.132	16
139.11	3
141.127	1
143.083	0
145.1	8
147.116	18
149.094	1
149.132	24
151.112	1
151.147	6
153.125	4
155.141	0
157.102	1
159.115	13
161.131	29
163.113	1
163.147	30
165.126	1
165.162	3
167.142	3
169.099	1
171.116	3
173.131	20
175.147	25
177.123	0
177.132	1
177.163	11
179.141	2
179.178	1
181.158	1
185.132	2
187.148	11
189.163	10
191.14	1
191.149	0
191.178	3
193.155	3
193.19	0
195.175	0
197.132	0
199.148	3
201.163	5
203.177	3
205.157	1
205.195	1
207.174	1
209.15	0
211.151	1
213.162	2
215.178	5
217.16	1
217.194	10
219.17	1
219.185	0
219.21	21
221.15	0
221.194	1
225.167	0
227.178	1
229.193	1
231.173	1
231.21	1
233.191	7
233.224	5
235.163	1
235.174	1
235.204	12
237.22	55
239.18	0
241.195	3
243.211	34
245.225	25
247.211	0
247.243	0
249.183	1
254.247	0
255.209	1
257.182	1
259.205	11
261.183	0
261.221	148
263.236	78
265.213	0
265.252	3
269.226	1
271.203	0
271.236	0
271.249	0
273.212	0
273.225	0
273.254	0
275.196	2
275.209	0
275.236	1
277.217	2
279.227	1
279.243	0
281.22	0
281.239	0
283.241	0
285.254	0
287.244	1
289.206	0
289.221	0
289.255	1
291.219	0
291.233	1
293.249	2
297.219	0
297.26	0
299.234	5
301.248	1
301.262	0
303.232	0
303.266	1
305.249	0
309.238	5
309.26	0
311.257	50
313.263	1
315.231	3
315.272	0
317.247	47
319.261	18
321.181	0
323.275	0
329.276	0
331.26	0
331.291	0
333.236	4
333.252	1
333.277	0
335.255	22
337.273	67
339.268	1
339.29	5
343.264	1
343.299	0
345.272	0
345.321	0
351.245	0
355.302	0
357.311	0
359.326	0
361.265	0
365.268	0
371.295	0
371.325	0
373.348	0
385.305	0
385.327	0
385.347	1
387.318	0
389.341	0
391.289	0
395.362	0
397.349	0
399.327	0
399.364	1
401.332	0
403.353	0
411.348	0
413.336	0
415.362	0
419.34	0
425.338	0
425.368	0
427.354	0
429.369	0
431.315	0
435.349	0
441.365	0
445.346	0
447.334	0
449.344	0
449.363	1
453.373	0
457.361	0
459.337	0
461.354	0
461.375	0
463.374	1
473.35	1
475.367	1
475.383	0
477.399	1
479.423	2
479.447	0
485.356	0
487.371	1
489.395	1
491.414	0
495.404	0
495.425	1
497.434	12
499.365	0
499.447	2
499.467	1
501.391	0
503.406	0
505.424	1
505.442	2
505.455	1
513.392	0
515.421	3
515.452	3
517.416	0
517.443	1
521.427	0
521.456	0
522.461	0
523.446	19
525.45	0
525.475	0
527.402	0
529.407	1
531.448	0
533.456	1
541.439	3
541.461	7
543.471	0
545.437	1
545.46	3
547.455	2
547.477	3
555.441	2
557.434	0
557.463	1
559.456	1
561.493	1
569.457	47
569.673	1
569.694	2
571.347	0
571.468	999
573.354	1
573.483	812
574.456	0
574.484	8
574.502	3
575.475	2
575.5	16
575.532	2
579.479	0
583.467	0
583.488	0
585.455	0
585.491	1
587.452	2
587.484	1
587.508	0
589.48	5
595.467	17
595.597	1
595.622	1
596.478	0
597.483	803
598.466	1
598.487	5
598.517	1
599.5	281
600.49	0
600.515	0
601.516	27
611.475	0
613.477	1
613.499	1
615.491	11
617.497	1
617.526	0
623.506	1
625.496	0
625.517	1
625.537	0
627.523	0
671.506	0
671.546	0
673.543	0
681.541	0
681.588	0
683.519	0
683.58	0
685.532	0
695.559	0
695.61	0
697.532	0
697.567	0
699.532	0
707.56	0
709.609	0
711.531	0
711.565	0
711.594	0
713.559	0
713.593	0
715.592	0
723.598	0
725.559	0
725.592	0
725.617	0
725.649	0
727.585	0
727.608	0
729.581	0
739.558	0
739.596	1
739.624	1
739.652	0
741.574	0
741.6	1
741.651	0
743.617	0
749.635	0
753.583	0
753.605	0
753.632	1
753.664	0
755.605	0
755.641	0
767.597	0
767.62	1
767.647	1
769.612	0
769.64	0
777.657	0
781.593	0
781.617	1
781.646	1
795.633	0
795.668	0
809.681	0
815.674	0
823.683	0
833.634	0
833.698	50
834.71	0
835.62	0
835.671	12
835.699	3
849.03	0
851.706	174
852.683	0
852.713	0
852.751	0
866.0	0
866.043	0
868.561	0
868.732	116
869.724	1
869.761	0
870.226	0
