Mass spectrum: TG 51:3; LC-ESI-QTOF; MS2
Name: TG 51:3
Class:  TAG
Formula: C54H98O6
Exact mass: 843.372
SMILES: CCCCCCCCCCCCCCCC(=O)OCC(COC(=O)CCCCCCCC\C=C/C=C\CCCCC)OC(=O)CCCCC\C=C/CCCCCCCCC
InChI: InChI=1S/C54H98O6/c1-4-7-10-13-16-19-22-25-27-30-32-35-38-41-44-47-53(56)59-50-51(49-58-52(55)46-43-40-37-34-31-28-24-21-18-15-12-9-6-3)60-54(57)48-45-42-39-36-33-29-26-23-20-17-14-11-8-5-2/h16,19,22,25,29,33,51H,4-15,17-18,20-21,23-24,26-28,30-32,34-50H2,1-3H3/b19-16-,25-22-,33-29-
Instrument: AB Sciex TripleTOF 5600+ system (Q-TOF) equipped with a DuoSpray ion source
Instrument type: LC-ESI-QTOF
Ms type: MS2
Ion mode: POSITIVE
Collision energy: 45V
Column name: Acquity UPLC Peptide BEH C18 column (50*2.1 mm; 1.7 um; 130A)(Waters Co.,Milford, MA, USA)
Retention time: 14.34355
Precursor type: [M+NH4]+
Precursor m/z: 860.7726
Intensity: 9389
m/z	relative intensity
71.082	7
79.053	10
81.069	50
83.085	21
85.099	8
93.07	16
95.084	32
95.092	13
97.101	18
107.082	8
109.1	29
111.117	7
121.099	9
121.106	6
123.117	20
133.104	7
135.116	18
137.133	10
149.132	10
161.131	7
175.149	10
225.22	14
233.228	15
237.221	12
239.229	7
239.243	12
245.224	17
245.237	7
247.247	9
251.237	24
263.237	68
265.254	27
277.269	1
299.246	3
299.26	12
311.267	3
313.271	20
319.252	3
319.267	10
321.288	2
325.273	10
327.29	4
337.268	9
337.292	4
339.288	19
339.303	4
341.313	3
365.279	1
513.476	6
524.478	3
546.461	5
547.469	20
547.501	4
549.487	9
552.511	3
559.475	8
561.491	481
561.738	6
563.508	999
565.521	12
573.49	139
573.698	3
575.506	618
577.519	46
587.505	610
589.519	158
601.521	473
603.515	7
603.542	22
605.547	5
615.523	7
615.546	6
615.566	4
745.685	1
801.702	1
802.672	8
802.695	16
802.715	20
802.737	6
825.738	7
825.772	5
843.716	10
843.747	34
843.776	11
860.727	10
860.752	51
860.782	140
861.071	2
