Mass spectrum: TG 52:4; LC-ESI-QTOF; MS2
Name: TG 52:4
Class:  TAG
Formula: C55H98O6
Exact mass: 855.3829999999999
SMILES: CCCCCCCCCCCCCCCC(=O)OCC(COC(=O)CCCCCCCC\C=C/C=C\CCCCC)OC(=O)CCCCCCCC\C=C/C=C\CCCCC
InChI: InChI=1S/C55H98O6/c1-4-7-10-13-16-19-22-25-27-30-33-36-39-42-45-48-54(57)60-51-52(50-59-53(56)47-44-41-38-35-32-29-24-21-18-15-12-9-6-3)61-55(58)49-46-43-40-37-34-31-28-26-23-20-17-14-11-8-5-2/h16-17,19-20,22-23,25-26,52H,4-15,18,21,24,27-51H2,1-3H3/b19-16-,20-17-,25-22-,26-23-
Instrument: AB Sciex TripleTOF 5600+ system (Q-TOF) equipped with a DuoSpray ion source
Instrument type: LC-ESI-QTOF
Ms type: MS2
Ion mode: POSITIVE
Collision energy: 45V
Column name: Acquity UPLC Peptide BEH C18 column (50*2.1 mm; 1.7 um; 130A)(Waters Co.,Milford, MA, USA)
Retention time: 14.25684
Precursor type: [M+NH4]+
Precursor m/z: 872.7677
Intensity: 1456427
m/z	relative intensity
71.049	2
71.085	10
77.038	5
79.054	23
81.07	87
83.049	1
83.085	43
85.064	2
85.101	12
91.053	13
93.069	31
94.794	0
95.085	87
97.063	1
97.101	34
99.08	7
99.117	2
101.094	0
105.069	9
107.085	26
109.101	64
111.08	1
111.116	15
113.095	4
113.132	1
117.069	0
119.085	9
121.101	54
123.079	0
123.116	55
125.095	2
125.132	4
127.112	4
127.148	0
131.085	2
133.101	18
135.116	49
137.094	0
137.132	28
139.111	4
139.147	1
141.127	3
145.101	1
147.116	13
149.132	32
151.11	1
151.148	13
153.127	8
155.143	1
157.099	0
159.117	2
161.132	25
163.113	0
163.147	33
165.127	1
165.163	12
167.143	5
169.156	1
171.115	1
173.132	3
175.148	28
177.134	0
177.163	13
179.142	4
179.179	4
181.158	3
185.132	1
187.148	2
189.163	12
191.141	0
191.18	4
193.158	5
193.191	0
195.137	0
195.173	1
199.148	1
201.163	3
202.167	0
203.178	6
205.193	2
207.133	0
207.175	3
209.157	0
209.189	0
213.161	0
215.175	0
217.195	3
219.21	25
221.154	0
221.189	2
221.225	3
223.171	0
229.195	0
231.21	0
233.226	1
235.169	2
235.206	1
235.245	1
237.221	69
239.237	36
240.245	0
241.195	0
243.21	6
245.226	76
247.242	23
249.185	2
249.219	0
254.246	0
256.262	1
257.225	0
257.249	0
259.209	0
259.242	0
261.222	16
263.237	252
265.253	77
267.216	0
269.224	0
271.204	0
271.235	0
273.22	0
273.26	0
275.237	1
275.276	0
277.215	1
277.245	0
277.254	0
279.233	1
280.267	0
282.283	0
283.242	0
285.221	0
285.259	0
286.227	0
287.236	0
287.27	0
289.214	0
289.255	1
289.295	0
291.222	0
291.233	0
291.271	0
293.248	2
295.256	0
295.27	0
297.271	0
297.287	0
301.253	3
303.233	0
303.267	0
303.28	0
305.249	0
305.283	0
307.266	0
309.242	0
311.258	38
313.274	41
314.277	2
314.292	0
315.273	0
315.29	0
317.247	4
317.28	0
317.294	0
319.263	41
321.28	3
323.261	0
323.288	0
325.27	0
327.272	0
329.285	0
331.261	0
331.291	0
333.279	0
335.256	3
335.278	0
337.274	67
339.289	53
341.311	0
343.336	0
345.273	0
345.294	0
345.318	0
347.297	0
351.249	0
357.321	0
359.298	0
359.321	0
361.351	0
363.248	0
363.332	0
365.266	0
365.295	0
367.289	0
371.335	0
373.35	1
375.326	0
377.267	0
377.332	0
379.284	0
383.333	0
385.354	0
387.327	0
387.365	1
389.337	0
389.39	0
391.268	0
391.285	0
391.305	0
393.293	0
399.363	0
401.339	0
401.374	0
403.282	0
403.364	0
405.295	0
405.314	0
407.322	0
413.365	0
413.382	0
415.363	0
415.385	0
417.359	0
417.382	0
419.31	0
419.342	0
421.333	0
427.35	0
427.373	0
427.392	0
429.379	0
431.395	0
433.327	0
435.346	0
441.394	0
443.375	0
443.393	0
445.361	0
447.377	0
449.366	0
451.368	0
451.387	0
457.401	0
459.373	0
459.398	0
461.358	0
461.393	0
463.357	0
463.375	0
465.384	0
465.402	0
475.379	0
477.393	0
481.432	1
489.387	1
491.414	1
499.441	4
499.467	2
501.465	4
507.449	1
507.466	1
509.473	1
517.46	3
519.474	0
525.463	8
527.465	1
527.482	4
543.451	1
543.479	7
545.468	1
545.493	2
547.463	1
547.485	1
549.488	1
551.504	2
552.506	9
553.504	8
559.47	1
561.487	1
571.455	0
571.698	4
572.471	0
573.484	926
574.489	7
575.374	1
575.501	999
576.509	22
576.716	11
577.072	1
577.425	0
577.518	29
581.489	1
587.502	3
589.513	4
591.494	0
591.522	0
597.63	3
598.49	3
599.501	819
600.497	1
600.517	2
601.517	901
602.533	4
603.528	21
615.505	1
615.534	0
617.502	1
617.525	1
619.534	1
627.544	1
647.518	0
671.585	0
671.614	0
673.509	0
673.531	0
673.547	0
673.58	0
675.552	0
681.561	0
683.563	0
685.584	0
685.628	0
687.559	0
689.58	0
699.602	0
699.628	0
701.573	0
703.567	0
703.609	0
711.613	0
713.619	0
713.648	0
715.555	0
715.587	0
715.614	0
717.593	0
717.63	0
719.606	0
725.611	0
727.676	0
729.604	1
729.636	0
729.66	0
731.592	0
731.628	0
739.642	0
743.581	0
743.62	1
743.65	1
745.615	0
745.67	0
757.585	0
757.608	0
757.629	0
757.651	1
757.678	0
757.698	0
759.664	0
771.623	0
771.647	0
771.667	0
771.686	0
771.716	0
773.658	0
785.64	0
785.671	0
785.69	0
799.671	0
819.715	0
837.67	0
837.733	31
837.794	0
838.732	0
852.661	0
852.709	6
853.002	0
853.034	0
853.065	0
853.107	0
853.703	0
854.747	0
855.416	0
855.741	156
855.803	0
856.697	0
856.732	0
856.769	0
869.981	0
870.023	0
870.049	0
870.114	0
871.653	0
871.777	0
871.867	0
872.513	0
872.552	0
872.767	105
872.84	0
873.695	0
873.756	0
873.781	0
873.809	0
874.002	0
874.278	0
874.591	0
876.844	0
