Mass spectrum: TG 56:7; LC-ESI-QTOF; MS2
Name: TG 56:7
Class:  TAG
Formula: C59H100O6
Exact mass: 905.443
SMILES: CCCCCCCCCCCCCCCC(=O)OCC(COC(=O)CCCCC\C=C/C\C=C/C\C=C/C\C=C/C\C=C/CC)OC(=O)CCCCCCCC\C=C/C=C\CCCCC
InChI: InChI=1S/C59H100O6/c1-4-7-10-13-16-19-22-25-27-28-29-30-32-34-37-40-43-46-49-52-58(61)64-55-56(54-63-57(60)51-48-45-42-39-36-33-24-21-18-15-12-9-6-3)65-59(62)53-50-47-44-41-38-35-31-26-23-20-17-14-11-8-5-2/h7,10,16-17,19-20,23,25-27,29-30,34,37,56H,4-6,8-9,11-15,18,21-22,24,28,31-33,35-36,38-55H2,1-3H3/b10-7-,19-16-,20-17-,26-23-,27-25-,30-29-,37-34-
Instrument: AB Sciex TripleTOF 5600+ system (Q-TOF) equipped with a DuoSpray ion source
Instrument type: LC-ESI-QTOF
Ms type: MS2
Ion mode: POSITIVE
Collision energy: 45V
Column name: Acquity UPLC Peptide BEH C18 column (50*2.1 mm; 1.7 um; 130A)(Waters Co.,Milford, MA, USA)
Retention time: 14.25742
Precursor type: [M+NH4]+
Precursor m/z: 922.7817
Intensity: 33715
m/z	relative intensity
71.084	2
77.037	2
79.054	8
81.069	23
83.085	9
85.062	2
85.1	3
91.053	12
93.069	10
95.085	24
97.067	2
97.099	5
105.069	10
107.084	8
109.099	13
111.079	2
111.115	2
113.096	1
117.069	6
119.084	14
121.1	16
123.117	10
125.097	2
129.069	3
131.084	6
133.101	16
135.08	1
135.114	12
137.131	4
143.083	3
145.099	7
147.116	7
149.131	7
151.144	2
153.126	2
157.099	7
159.116	7
161.091	1
161.131	10
163.11	2
163.147	8
165.16	2
167.143	1
171.115	15
173.132	10
175.108	4
175.148	20
177.161	6
185.132	11
187.147	10
189.126	4
189.165	17
191.179	6
197.132	1
199.148	10
201.163	14
203.143	4
203.178	92
205.195	2
213.163	8
215.18	6
217.196	2
227.18	6
229.194	2
241.194	3
243.208	5
245.225	13
247.238	8
259.207	2
259.239	10
261.227	2
263.235	29
265.252	28
267.21	2
269.225	81
271.212	1
271.241	2
285.219	7
287.235	86
288.24	1
289.25	1
295.229	1
295.246	2
297.255	2
307.247	1
311.248	1
313.249	5
313.271	8
315.266	3
315.278	1
317.243	1
319.258	5
319.273	2
321.282	1
335.25	2
335.271	1
337.272	106
339.287	114
340.292	2
343.263	5
353.29	0
359.247	1
361.269	3
361.285	1
363.278	1
369.275	1
371.291	1
389.298	1
391.276	2
391.299	1
393.293	3
393.306	2
423.338	1
459.337	1
461.368	1
463.376	1
465.403	0
527.491	1
531.466	1
533.469	1
549.457	5
549.486	2
551.466	1
551.49	2
557.455	1
567.473	1
573.479	16
575.501	29
577.512	1
599.503	12
599.623	1
599.654	2
600.514	1
601.411	1
601.515	999
602.517	15
602.547	3
603.529	11
603.554	3
619.516	1
619.548	1
621.487	1
622.484	1
623.501	288
624.481	3
624.514	3
625.517	238
626.509	3
626.533	2
627.533	24
641.508	3
641.529	1
643.509	1
643.526	2
649.515	37
649.539	5
651.517	1
651.543	1
683.555	0
697.532	0
713.572	0
725.585	0
735.626	0
741.624	0
753.567	0
753.613	0
763.624	0
765.617	0
767.591	0
767.614	0
767.643	0
779.607	0
781.632	0
793.631	1
795.686	0
807.666	1
821.649	0
821.673	1
821.714	0
839.735	0
840.68	0
840.697	2
840.726	2
869.728	0
877.725	0
887.711	2
887.744	11
887.778	3
901.706	1
901.762	1
902.918	0
905.754	178
906.72	0
906.745	1
906.771	1
922.755	32
922.779	203
923.765	4
923.796	3
923.825	1
