Mass spectrum: TG 60:10; LC-ESI-QTOF; MS2
Name: TG 60:10
Class:  TAG
Formula: C63H102O6
Exact mass: 955.503
SMILES: CCCCCCCCCCCCCCCC(=O)OCC(COC(=O)CCCCC\C=C/C\C=C/C\C=C/C\C=C/C\C=C/CC)OC(=O)CCCCC\C=C/C\C=C/C\C=C/C\C=C/C\C=C/CC
InChI: InChI=1S/C63H102O6/c1-4-7-10-13-16-19-22-25-27-29-31-33-35-38-41-44-47-50-53-56-62(65)68-59-60(58-67-61(64)55-52-49-46-43-40-37-24-21-18-15-12-9-6-3)69-63(66)57-54-51-48-45-42-39-36-34-32-30-28-26-23-20-17-14-11-8-5-2/h7-8,10-11,16-17,19-20,25-28,31-34,38-39,41-42,60H,4-6,9,12-15,18,21-24,29-30,35-37,40,43-59H2,1-3H3/b10-7-,11-8-,19-16-,20-17-,27-25-,28-26-,33-31-,34-32-,41-38-,42-39-
Instrument: AB Sciex TripleTOF 5600+ system (Q-TOF) equipped with a DuoSpray ion source
Instrument type: LC-ESI-QTOF
Ms type: MS2
Ion mode: POSITIVE
Collision energy: 45V
Column name: Acquity UPLC Peptide BEH C18 column (50*2.1 mm; 1.7 um; 130A)(Waters Co.,Milford, MA, USA)
Retention time: 14.20526
Precursor type: [M+NH4]+
Precursor m/z: 972.7925
Intensity: 1232
m/z	relative intensity
81.069	19
91.055	16
93.068	16
95.084	32
107.083	16
109.1	16
119.085	19
121.1	29
131.084	32
135.118	23
145.099	22
159.113	19
161.131	32
171.115	22
173.131	35
175.147	29
185.132	25
187.145	38
197.132	19
199.148	29
201.162	45
203.183	17
211.151	16
213.158	24
215.177	32
225.163	19
227.181	19
239.188	16
239.238	29
267.208	17
268.994	19
269.214	19
292.965	13
295.237	35
295.248	12
295.259	16
311.236	29
313.248	59
313.262	85
313.271	26
313.278	45
325.212	10
339.288	30
359.266	10
369.277	30
385.261	26
387.292	46
577.508	16
578.52	32
597.463	19
597.498	19
598.497	24
599.495	36
600.515	58
603.544	41
619.457	18
620.474	51
622.478	33
623.51	60
625.506	407
625.528	459
625.575	12
626.526	36
627.528	184
627.547	29
645.48	41
646.451	19
646.489	68
646.516	16
649.521	22
651.523	42
651.54	23
651.552	23
653.531	34
653.54	43
653.553	73
653.573	52
671.509	20
673.508	39
699.506	26
699.515	72
699.524	66
699.536	144
699.578	20
851.715	6
875.694	6
890.731	22
902.695	174
902.717	999
902.743	631
902.758	283
902.785	95
902.796	41
903.704	45
903.715	55
903.725	49
955.75	65
955.77	22
955.797	55
972.719	35
972.765	79
972.776	142
972.787	109
972.796	110
972.809	112
972.823	191
