Mass spectrum: TG 52:2; LC-ESI-QTOF; MS2
Name: TG 52:2
Class:  TAG
Formula: C55H102O6
Exact mass: 859.415
SMILES: CCCCCCCCCCCCCCCC(=O)OCC(COC(=O)CCCCCCCCC\C=C/CCCCCC)OC(=O)CCCCCCCCC\C=C/CCCCCC
InChI: InChI=1S/C55H102O6/c1-4-7-10-13-16-19-22-25-27-30-33-36-39-42-45-48-54(57)60-51-52(50-59-53(56)47-44-41-38-35-32-29-24-21-18-15-12-9-6-3)61-55(58)49-46-43-40-37-34-31-28-26-23-20-17-14-11-8-5-2/h19-20,22-23,52H,4-18,21,24-51H2,1-3H3/b22-19-,23-20-
Instrument: AB Sciex TripleTOF 5600+ system (Q-TOF) equipped with a DuoSpray ion source
Instrument type: LC-ESI-QTOF
Ms type: MS2
Ion mode: POSITIVE
Collision energy: 45V
Column name: Acquity UPLC Peptide BEH C18 column (50*2.1 mm; 1.7 um; 130A)(Waters Co.,Milford, MA, USA)
Retention time: 14.79224
Precursor type: [M+NH4]+
Precursor m/z: 876.8036
Intensity: 165405
m/z	relative intensity
71.049	0
71.084	9
77.037	1
79.053	4
81.069	24
83.051	0
83.084	19
85.064	1
85.1	8
91.053	1
93.069	6
95.085	33
97.064	1
97.1	16
99.079	1
99.115	2
101.094	0
105.072	0
107.084	5
109.101	23
111.078	1
111.088	0
111.116	8
113.094	0
113.131	1
119.085	0
121.1	16
123.116	11
125.094	0
125.131	2
127.111	0
127.142	0
127.153	0
133.103	0
135.116	16
137.132	6
139.111	1
139.146	1
141.126	0
141.165	0
143.14	0
147.116	0
149.131	8
151.148	4
153.125	2
155.136	0
155.142	0
161.13	0
163.146	6
165.163	6
167.142	1
169.157	0
173.131	0
175.148	0
177.162	3
179.179	2
181.155	0
189.162	0
191.174	1
191.186	0
193.194	0
195.132	0
195.173	0
203.178	0
205.194	1
209.151	0
209.188	0
219.211	1
221.226	3
237.181	0
237.223	2
239.236	31
245.225	1
247.242	26
249.259	0
256.259	0
256.269	0
257.247	0
263.237	5
265.252	86
267.268	2
275.266	0
279.224	0
279.237	0
282.273	0
282.289	0
283.246	0
284.294	0
285.259	0
291.268	0
293.282	0
295.258	0
297.269	0
297.285	0
303.267	0
311.255	0
311.281	0
312.31	0
313.274	17
319.26	1
319.277	0
321.278	4
323.285	0
323.299	0
325.307	0
335.263	0
337.266	0
337.285	0
338.227	0
339.29	22
341.308	2
367.319	0
389.403	0
393.306	0
431.375	0
501.474	0
503.46	0
503.487	0
521.492	0
529.484	0
529.502	1
545.491	0
547.458	0
547.472	0
547.499	0
547.517	0
549.486	11
551.505	2
573.713	0
575.505	151
575.569	0
575.685	0
575.718	3
575.751	0
576.188	0
576.504	0
576.713	0
576.989	0
577.165	0
577.181	0
577.202	0
577.388	0
577.408	0
577.518	999
577.972	0
578.087	0
578.503	0
578.529	0
578.783	0
579.157	0
579.534	71
580.728	0
583.568	0
583.821	0
589.542	0
591.531	0
601.617	0
601.637	1
601.655	1
601.667	0
603.172	0
603.35	0
603.383	0
603.406	0
603.439	0
603.534	810
604.536	0
604.564	0
605.551	60
621.542	0
631.551	0
631.575	1
719.611	0
841.737	0
841.775	2
857.102	0
859.779	14
859.892	0
860.051	0
874.039	0
874.06	0
874.093	0
875.874	0
876.494	0
876.618	0
876.802	82
876.934	0
878.385	0
