Mass spectrum: TG 45:1; LC-ESI-QTOF; MS2
Name: TG 45:1
Class:  TAG
Formula: C48H90O6
Exact mass: 763.2420000000001
SMILES: CCCCCCCCCCCCCCC(=O)OC(COC(=O)CCCCCCCCCCC)COC(=O)CCCCCCCCC\C=C/CCCCCC
InChI: InChI=1S/C48H90O6/c1-4-7-10-13-16-19-21-23-24-25-27-29-32-35-38-41-47(50)53-44-45(43-52-46(49)40-37-34-31-28-18-15-12-9-6-3)54-48(51)42-39-36-33-30-26-22-20-17-14-11-8-5-2/h19,21,45H,4-18,20,22-44H2,1-3H3/b21-19-
Instrument: AB Sciex TripleTOF 5600+ system (Q-TOF) equipped with a DuoSpray ion source
Instrument type: LC-ESI-QTOF
Ms type: MS2
Ion mode: POSITIVE
Collision energy: 45V
Column name: Acquity UPLC Peptide BEH C18 column (50*2.1 mm; 1.7 um; 130A)(Waters Co.,Milford, MA, USA)
Retention time: 13.95803
Precursor type: [M+NH4]+
Precursor m/z: 780.703
Intensity: 3624
m/z	relative intensity
71.086	55
81.069	108
83.081	54
85.099	47
95.083	114
97.103	59
109.101	66
121.102	48
123.114	35
125.135	35
197.188	37
211.209	65
225.218	41
237.22	72
237.229	31
239.233	102
265.258	62
285.244	29
293.246	13
311.252	13
313.274	47
339.296	11
465.397	13
467.395	17
479.393	36
481.408	145
481.43	364
493.421	78
495.439	284
507.439	999
509.454	823
521.43	183
521.453	838
521.481	97
523.467	121
535.469	977
537.488	193
549.491	224
563.495	187
563.518	144
577.517	236
577.536	54
591.538	59
605.546	47
763.677	13
780.687	47
780.721	26
