Mass spectrum: TG 48:3; LC-ESI-QTOF; MS2
Name: TG 48:3
Class:  TAG
Formula: C51H92O6
Exact mass: 801.2909999999999
SMILES: CCCCCCCCCCCC(=O)OCC(COC(=O)CCCCCCCC\C=C/C=C\CCCCC)OC(=O)CCCCCCCCC\C=C/CCCCCC
InChI: InChI=1S/C51H92O6/c1-4-7-10-13-16-19-21-23-25-27-29-32-35-38-41-44-50(53)56-47-48(46-55-49(52)43-40-37-34-31-18-15-12-9-6-3)57-51(54)45-42-39-36-33-30-28-26-24-22-20-17-14-11-8-5-2/h16,19-23,48H,4-15,17-18,24-47H2,1-3H3/b19-16-,22-20-,23-21-
Instrument: AB Sciex TripleTOF 5600+ system (Q-TOF) equipped with a DuoSpray ion source
Instrument type: LC-ESI-QTOF
Ms type: MS2
Ion mode: POSITIVE
Collision energy: 45V
Column name: Acquity UPLC Peptide BEH C18 column (50*2.1 mm; 1.7 um; 130A)(Waters Co.,Milford, MA, USA)
Retention time: 13.91691
Precursor type: [M+NH4]+
Precursor m/z: 818.7263
Intensity: 25465
m/z	relative intensity
71.083	11
79.053	9
81.069	52
83.085	27
85.063	3
85.1	12
91.052	5
93.067	13
95.084	57
97.098	21
105.066	3
107.078	4
107.086	10
109.1	40
111.116	11
119.085	4
121.098	31
123.115	22
133.096	3
133.106	3
135.115	24
137.13	15
147.113	4
149.127	8
149.14	5
151.144	3
153.128	3
161.131	13
163.146	11
163.157	4
165.163	3
167.14	4
175.141	8
175.151	4
177.16	6
181.156	3
183.173	9
189.157	3
191.174	5
193.19	3
203.177	3
209.186	14
211.201	41
219.208	22
237.216	68
239.235	6
245.219	20
245.234	6
247.24	4
257.203	3
263.233	73
265.248	17
277.217	0
279.23	0
283.224	4
283.242	1
285.237	21
285.259	2
293.239	2
293.26	1
301.265	1
311.255	22
311.281	2
313.256	2
313.27	7
313.29	2
319.254	12
319.27	6
319.287	1
321.275	1
335.265	0
337.251	2
337.268	12
337.285	2
337.304	1
339.264	3
339.28	4
339.298	6
445.387	1
447.417	1
463.384	1
471.416	1
473.423	1
491.388	1
491.405	1
491.438	1
493.413	1
499.424	1
499.44	1
517.459	2
517.811	1
519.431	276
519.787	1
519.817	1
519.847	2
521.449	799
522.427	1
522.471	1
523.45	3
523.482	1
527.471	1
533.444	0
535.461	1
543.735	1
545.453	236
545.758	1
545.779	1
547.461	999
547.562	1
548.438	1
548.453	2
548.477	1
549.457	3
549.48	9
549.508	5
549.534	1
561.496	1
563.496	1
571.683	3
573.478	725
574.46	1
575.495	260
577.473	2
577.495	6
577.52	8
599.625	1
601.51	192
603.521	8
603.549	1
629.556	1
703.611	0
783.636	1
783.666	5
783.697	4
783.737	1
801.663	20
801.694	21
801.714	6
801.731	5
801.751	2
801.78	1
816.13	0
818.577	0
818.619	1
818.65	1
818.712	119
818.784	7
