Mass spectrum: TG 50:5; LC-ESI-QTOF; MS2
Name: TG 50:5
Class:  TAG
Formula: C53H92O6
Exact mass: 825.313
SMILES: CCCCCCCCCCCCCC(=O)OCC(COC(=O)CCCCCCCCC\C=C/C=C\C=C/CC)OC(=O)CCCCCCCC\C=C/C=C\CCCCC
InChI: InChI=1S/C53H92O6/c1-4-7-10-13-16-19-22-24-26-28-31-34-37-40-43-46-52(55)58-49-50(48-57-51(54)45-42-39-36-33-30-21-18-15-12-9-6-3)59-53(56)47-44-41-38-35-32-29-27-25-23-20-17-14-11-8-5-2/h7,10,13,16-17,19-20,22-23,25,50H,4-6,8-9,11-12,14-15,18,21,24,26-49H2,1-3H3/b10-7-,16-13-,20-17-,22-19-,25-23-
Instrument: AB Sciex TripleTOF 5600+ system (Q-TOF) equipped with a DuoSpray ion source
Instrument type: LC-ESI-QTOF
Ms type: MS2
Ion mode: POSITIVE
Collision energy: 45V
Column name: Acquity UPLC Peptide BEH C18 column (50*2.1 mm; 1.7 um; 130A)(Waters Co.,Milford, MA, USA)
Retention time: 13.79305
Precursor type: [M+NH4]+
Precursor m/z: 842.7195
Intensity: 8843
m/z	relative intensity
71.086	10
79.055	17
81.069	53
83.086	9
91.054	13
93.07	16
95.085	68
97.1	11
99.08	9
107.086	19
109.1	40
119.085	14
121.1	27
123.114	14
123.121	14
131.086	9
133.101	20
135.117	25
137.131	8
145.1	7
147.116	8
149.131	18
159.116	15
161.131	21
163.148	21
173.135	16
175.14	8
175.149	11
177.164	11
187.146	12
189.165	19
191.183	10
209.191	10
211.206	44
215.179	9
217.197	7
237.223	13
243.211	27
245.228	28
259.209	13
261.221	137
263.238	67
269.003	10
279.233	2
283.236	7
285.243	48
291.243	4
293.234	6
294.23	3
295.23	3
299.233	7
301.25	3
311.247	10
311.263	17
312.244	4
313.257	9
315.242	2
317.246	38
319.26	10
319.277	6
333.24	5
335.26	19
337.263	19
337.28	32
339.283	10
339.299	5
432.992	4
437.371	3
467.409	10
471.407	5
489.389	9
495.443	44
496.444	60
496.467	20
497.448	66
505.436	6
517.42	8
519.43	8
519.46	5
521.454	6
523.45	11
523.467	4
541.46	6
543.44	50
543.476	7
545.456	932
545.767	5
547.471	999
549.488	7
549.506	5
551.502	5
568.436	6
569.457	35
571.474	340
573.481	168
575.508	19
596.468	8
596.491	6
597.488	829
598.48	5
599.484	54
599.504	102
601.514	31
601.529	16
601.55	6
624.505	7
625.501	11
625.52	9
625.541	4
687.583	2
713.566	4
727.604	3
741.581	2
743.276	1
743.604	2
745.611	60
745.64	120
755.63	2
769.615	2
807.675	36
807.704	11
807.72	7
825.658	36
825.697	163
825.728	27
842.713	242
842.747	48
