Mass spectrum: TG 60:10; LC-ESI-QTOF; MS2
Name: TG 60:10
Class:  TAG
Formula: C63H102O6
Exact mass: 955.503
SMILES: CCCCCCCCCCCCCCCC(=O)OCC(COC(=O)CCCCC\C=C/C\C=C/C\C=C/C\C=C/C\C=C/CC)OC(=O)CCCCC\C=C/C\C=C/C\C=C/C\C=C/C\C=C/CC
InChI: InChI=1S/C63H102O6/c1-4-7-10-13-16-19-22-25-27-29-31-33-35-38-41-44-47-50-53-56-62(65)68-59-60(58-67-61(64)55-52-49-46-43-40-37-24-21-18-15-12-9-6-3)69-63(66)57-54-51-48-45-42-39-36-34-32-30-28-26-23-20-17-14-11-8-5-2/h7-8,10-11,16-17,19-20,25-28,31-34,38-39,41-42,60H,4-6,9,12-15,18,21-24,29-30,35-37,40,43-59H2,1-3H3/b10-7-,11-8-,19-16-,20-17-,27-25-,28-26-,33-31-,34-32-,41-38-,42-39-
Instrument: AB Sciex TripleTOF 5600+ system (Q-TOF) equipped with a DuoSpray ion source
Instrument type: LC-ESI-QTOF
Ms type: MS2
Ion mode: POSITIVE
Collision energy: 45V
Column name: Acquity UPLC Peptide BEH C18 column (50*2.1 mm; 1.7 um; 130A)(Waters Co.,Milford, MA, USA)
Retention time: 14.20543
Precursor type: [M+NH4]+
Precursor m/z: 972.7949
Intensity: 4312
m/z	relative intensity
81.071	10
91.057	6
105.072	6
118.085	7
121.102	6
131.085	9
145.102	6
159.121	6
173.137	7
175.147	8
185.135	6
187.145	5
201.163	21
213.161	12
215.181	8
267.208	6
281.202	2
285.217	6
285.272	2
293.225	4
295.239	15
311.237	4
313.234	4
313.254	18
313.264	8
313.283	7
339.281	6
341.229	6
341.3	4
369.277	9
385.272	2
387.288	17
573.493	5
575.468	4
575.495	11
575.516	14
577.508	4
595.456	4
595.487	4
597.483	53
599.496	21
601.511	5
621.458	7
621.481	8
621.494	14
621.516	6
623.497	10
625.513	142
625.537	47
625.565	6
627.528	16
627.558	6
649.533	4
651.51	4
651.537	11
651.568	4
653.518	6
653.545	41
653.571	19
671.494	16
673.487	4
673.531	11
699.505	13
699.541	65
699.582	5
853.712	2
874.981	2
875.705	2
876.587	3
876.724	5
877.724	999
878.708	10
878.736	14
878.764	5
890.759	3
901.721	2
904.725	8
937.769	5
955.737	11
955.789	24
972.775	31
972.798	52
972.82	28
972.845	12
973.803	2
