Mass spectrum: TG 62:13; LC-ESI-QTOF; MS2
Name: TG 62:13
Class:  TAG
Formula: C65H100O6
Exact mass: 977.5089999999999
SMILES: CCCCCC\C=C/CCCCCCCCCC(=O)OCC(COC(=O)CC\C=C/C\C=C/C\C=C/C\C=C/C\C=C/C\C=C/CC)OC(=O)CC\C=C/C\C=C/C\C=C/C\C=C/C\C=C/C\C=C/CC
InChI: InChI=1S/C65H100O6/c1-4-7-10-13-16-19-22-25-28-30-32-34-37-40-43-46-49-52-55-58-64(67)70-61-62(60-69-63(66)57-54-51-48-45-42-39-36-27-24-21-18-15-12-9-6-3)71-65(68)59-56-53-50-47-44-41-38-35-33-31-29-26-23-20-17-14-11-8-5-2/h7-8,10-11,16-17,19-21,24-26,28-29,32-35,40-41,43-44,49-50,52-53,62H,4-6,9,12-15,18,22-23,27,30-31,36-39,42,45-48,51,54-61H2,1-3H3/b10-7-,11-8-,19-16-,20-17-,24-21-,28-25-,29-26-,34-32-,35-33-,43-40-,44-41-,52-49-,53-50-
Instrument: AB Sciex TripleTOF 5600+ system (Q-TOF) equipped with a DuoSpray ion source
Instrument type: LC-ESI-QTOF
Ms type: MS2
Ion mode: POSITIVE
Collision energy: 45V
Column name: Acquity UPLC Peptide BEH C18 column (50*2.1 mm; 1.7 um; 130A)(Waters Co.,Milford, MA, USA)
Retention time: 14.04908
Precursor type: [M+NH4]+
Precursor m/z: 994.7884
Intensity: 9554
m/z	relative intensity
79.054	10
81.069	12
83.086	5
91.054	15
93.07	11
95.084	17
97.101	4
105.069	10
107.086	8
109.101	9
117.065	7
117.074	4
119.087	13
121.101	13
123.116	4
129.07	6
131.085	18
133.1	8
133.109	4
135.115	9
145.102	11
147.115	5
149.13	6
155.084	4
157.101	10
159.119	15
161.134	10
163.148	6
169.101	11
171.117	22
173.13	15
175.143	5
175.157	6
181.102	8
183.116	11
185.129	11
187.11	4
187.149	6
195.116	5
197.132	8
199.149	13
201.164	15
209.132	9
211.149	16
213.164	14
215.178	11
223.148	11
223.159	6
225.164	13
227.179	17
229.158	6
237.169	4
247.239	6
265.194	5
265.253	21
267.21	7
269.227	10
271.164	1
281.224	1
283.203	1
283.245	4
289.197	2
291.21	4
293.197	1
293.226	42
294.228	1
295.244	4
297.18	1
301.198	1
307.209	1
309.217	5
309.234	3
311.201	1
311.238	60
312.248	1
313.258	1
321.278	2
325.216	1
337.273	2
338.246	1
339.288	81
363.257	1
365.282	1
367.263	6
367.293	1
369.268	1
383.251	3
383.271	2
385.273	21
387.292	1
393.299	6
401.279	1
403.296	1
527.405	1
541.428	1
557.466	1
575.475	1
575.503	1
599.489	5
599.515	3
621.476	22
621.528	2
623.496	1
631.495	1
639.478	1
647.471	3
647.494	6
647.516	3
647.529	2
649.519	999
650.489	2
650.519	21
650.545	7
651.568	2
665.521	1
667.525	2
693.343	1
695.456	3
695.486	68
695.513	106
696.511	3
697.536	1
711.504	1
713.516	1
841.641	1
867.672	0
895.675	1
901.657	3
901.719	161
901.75	58
901.779	9
902.686	1
902.739	3
907.708	1
912.716	1
959.736	1
959.783	2
977.719	13
977.749	25
977.773	18
977.807	4
978.755	3
983.739	1
994.784	357
994.88	1
995.742	3
995.786	6
