Mass spectrum: TG 56:1; LC-ESI-QTOF; MS2
Name: TG 56:1
Class:  TAG
Formula: C59H112O6
Exact mass: 917.539
SMILES: CCCCCCCCCCCCCCCCCCCCCC(=O)OCC(COC(=O)CCCCCCCCCCCCCCC)OC(=O)CCCCCCCCC\C=C/CCCCCC
InChI: InChI=1S/C59H112O6/c1-4-7-10-13-16-19-22-25-27-28-29-30-32-34-37-40-43-46-49-52-58(61)64-55-56(54-63-57(60)51-48-45-42-39-36-33-24-21-18-15-12-9-6-3)65-59(62)53-50-47-44-41-38-35-31-26-23-20-17-14-11-8-5-2/h20,23,56H,4-19,21-22,24-55H2,1-3H3/b23-20-
Instrument: AB Sciex TripleTOF 5600+ system (Q-TOF) equipped with a DuoSpray ion source
Instrument type: LC-ESI-QTOF
Ms type: MS2
Ion mode: POSITIVE
Collision energy: 45V
Column name: Acquity UPLC Peptide BEH C18 column (50*2.1 mm; 1.7 um; 130A)(Waters Co.,Milford, MA, USA)
Retention time: 16.07719
Precursor type: [M+NH4]+
Precursor m/z: 934.8865
Intensity: 686
m/z	relative intensity
81.071	70
85.102	65
95.09	28
109.098	56
111.117	37
239.235	65
265.247	57
265.263	32
265.275	37
268.994	56
295.298	18
316.908	18
466.98	28
549.487	190
551.514	75
577.51	343
577.52	205
577.527	214
577.533	181
577.54	143
577.557	79
579.514	84
579.546	85
605.522	143
605.534	621
605.546	333
605.553	325
605.566	584
605.581	124
607.547	75
607.562	134
607.572	85
633.544	106
633.551	221
633.558	311
633.565	359
633.573	474
633.58	474
633.587	513
633.594	319
633.612	175
635.561	300
635.57	338
635.577	301
635.584	525
635.591	536
635.598	508
635.612	999
635.641	115
661.57	114
661.606	878
661.63	172
661.642	258
689.633	59
917.84	37
934.753	37
934.835	48
934.844	47
934.853	95
934.873	400
934.891	76
934.917	66
934.971	21
935.875	18
