Mass spectrum: TG 53:1; LC-ESI-QTOF; MS2
Name: TG 53:1
Class:  TAG
Formula: C56H106O6
Exact mass: 875.458
SMILES: CCCCCCCCCCCCCCCCCCC(=O)OCC(COC(=O)CCCCCCCCCCCCCCC)OC(=O)CCCCCCCCC\C=C/CCCCCC
InChI: InChI=1S/C56H106O6/c1-4-7-10-13-16-19-22-25-27-29-31-34-37-40-43-46-49-55(58)61-52-53(51-60-54(57)48-45-42-39-36-33-30-24-21-18-15-12-9-6-3)62-56(59)50-47-44-41-38-35-32-28-26-23-20-17-14-11-8-5-2/h20,23,53H,4-19,21-22,24-52H2,1-3H3/b23-20-
Instrument: AB Sciex TripleTOF 5600+ system (Q-TOF) equipped with a DuoSpray ion source
Instrument type: LC-ESI-QTOF
Ms type: MS2
Ion mode: POSITIVE
Collision energy: 45V
Column name: Acquity UPLC Peptide BEH C18 column (50*2.1 mm; 1.7 um; 130A)(Waters Co.,Milford, MA, USA)
Retention time: 15.35343
Precursor type: [M+NH4]+
Precursor m/z: 892.8284
Intensity: 2789
m/z	relative intensity
71.086	14
81.069	16
83.085	25
85.1	17
95.085	28
97.097	10
97.105	16
111.117	17
121.104	8
123.121	17
125.132	7
179.182	7
186.99	9
226.981	18
239.237	29
247.242	20
265.256	53
267.265	15
279.266	5
281.28	10
293.296	2
307.297	2
308.999	2
313.272	10
321.29	4
327.056	2
327.29	10
339.096	2
339.298	7
341.307	13
348.98	3
355.312	5
438.912	2
549.493	26
551.505	25
563.491	20
565.497	8
565.504	13
565.521	46
565.557	8
577.513	707
579.509	19
579.535	159
591.534	748
591.701	12
593.501	16
593.549	999
594.547	8
605.52	47
605.549	419
605.585	43
607.549	14
607.576	22
619.56	901
621.573	17
633.585	10
647.606	13
707.575	4
827.7	4
845.673	2
857.752	4
875.793	10
892.766	102
892.8	96
892.83	107
892.852	59
893.523	2
893.796	11
