Mass spectrum: DG 24:2; LC-ESI-QTOF; MS2
Name: DG 24:2
Class:  DAG
Formula: C27H48O5
Exact mass: 452.676
SMILES: CCCCC\C=C/C\C=C/CCCCCCCC(=O)OC(CO)COC(=O)CCCCC
InChI: InChI=1S/C27H48O5/c1-3-5-7-8-9-10-11-12-13-14-15-16-17-18-20-22-27(30)32-25(23-28)24-31-26(29)21-19-6-4-2/h9-10,12-13,25,28H,3-8,11,14-24H2,1-2H3/b10-9-,13-12-
Instrument: AB Sciex TripleTOF 5600+ system (Q-TOF) equipped with a DuoSpray ion source
Instrument type: LC-ESI-QTOF
Ms type: MS2
Ion mode: POSITIVE
Collision energy: 45V
Column name: Acquity UPLC Peptide BEH C18 column (50*2.1 mm; 1.7 um; 130A)(Waters Co.,Milford, MA, USA)
Retention time: 7.711896
Precursor type: [M+NH4]+
Precursor m/z: 470.3833
Intensity: 507
m/z	relative intensity
79.054	115
81.069	153
95.083	115
99.077	307
117.088	76
121.101	76
137.129	76
173.118	999
245.225	76
263.239	76
337.259	192
337.279	423
435.335	461
435.353	584
