Mass spectrum: TG 58:8; LC-ESI-QTOF; MS2
Name: TG 58:8
Class:  TAG
Formula: C61H102O6
Exact mass: 931.481
SMILES: CCCCCCCCCCCCCCCCCC(=O)OCC(COC(=O)CCC\C=C/C\C=C/C\C=C/C\C=C/CCCCC)OC(=O)CCC\C=C/C\C=C/C\C=C/C\C=C/CCCCC
InChI: InChI=1S/C61H102O6/c1-4-7-10-13-16-19-22-25-28-30-33-36-39-42-45-48-51-54-60(63)66-57-58(56-65-59(62)53-50-47-44-41-38-35-32-27-24-21-18-15-12-9-6-3)67-61(64)55-52-49-46-43-40-37-34-31-29-26-23-20-17-14-11-8-5-2/h16-17,19-20,25-26,28-29,33-34,36-37,42-43,45-46,58H,4-15,18,21-24,27,30-32,35,38-41,44,47-57H2,1-3H3/b19-16-,20-17-,28-25-,29-26-,36-33-,37-34-,45-42-,46-43-
Instrument: AB Sciex TripleTOF 5600+ system (Q-TOF) equipped with a DuoSpray ion source
Instrument type: LC-ESI-QTOF
Ms type: MS2
Ion mode: POSITIVE
Collision energy: 45V
Column name: Acquity UPLC Peptide BEH C18 column (50*2.1 mm; 1.7 um; 130A)(Waters Co.,Milford, MA, USA)
Retention time: 14.45298
Precursor type: [M+NH4]+
Precursor m/z: 948.7935
Intensity: 251
m/z	relative intensity
171.117	189
201.16	153
203.176	401
268.995	262
269.231	189
287.24	401
292.962	153
341.296	328
341.314	729
359.304	72
361.258	109
361.294	80
456.961	145
538.973	72
603.513	109
627.51	547
627.534	999
627.552	364
647.5	474
702.977	72
929.756	474
931.766	116
948.646	72
948.768	401
948.796	328
948.836	291
