Mass spectrum: TG 50:7; LC-ESI-QTOF; MS2
Name: TG 50:7
Class:  TAG
Formula: C53H88O6
Exact mass: 821.2810000000001
SMILES: CCCCCCCCCCCC(=O)OCC(COC(=O)CCC\C=C/C\C=C/C\C=C/C\C=C/C\C=C/CC)OC(=O)CCCCCCCC\C=C/C=C\CCCCC
InChI: InChI=1S/C53H88O6/c1-4-7-10-13-16-19-21-23-25-26-28-29-31-34-37-40-43-46-52(55)58-49-50(48-57-51(54)45-42-39-36-33-18-15-12-9-6-3)59-53(56)47-44-41-38-35-32-30-27-24-22-20-17-14-11-8-5-2/h7,10,16-17,19-20,22-25,28-29,34,37,50H,4-6,8-9,11-15,18,21,26-27,30-33,35-36,38-49H2,1-3H3/b10-7-,19-16-,20-17-,24-22-,25-23-,29-28-,37-34-
Instrument: AB Sciex TripleTOF 5600+ system (Q-TOF) equipped with a DuoSpray ion source
Instrument type: LC-ESI-QTOF
Ms type: MS2
Ion mode: POSITIVE
Collision energy: 45V
Column name: Acquity UPLC Peptide BEH C18 column (50*2.1 mm; 1.7 um; 130A)(Waters Co.,Milford, MA, USA)
Retention time: 13.54009
Precursor type: [M+NH4]+
Precursor m/z: 838.6904
Intensity: 8176
m/z	relative intensity
79.054	17
81.069	47
83.084	10
91.054	17
93.07	21
95.085	48
107.084	14
109.1	32
117.07	15
119.084	17
121.101	30
123.117	25
131.088	22
133.101	19
135.115	17
145.1	16
147.115	14
157.1	11
159.112	15
161.134	11
163.148	14
171.118	21
173.131	29
175.147	25
183.118	15
183.174	33
185.132	27
187.145	23
189.161	16
197.136	11
199.15	14
201.163	93
203.177	13
213.16	25
231.174	26
237.222	14
245.225	10
257.213	90
263.236	46
267.212	72
271.227	2
283.204	4
283.234	8
285.222	62
285.248	3
305.221	3
309.249	4
311.217	7
311.254	18
311.269	7
313.269	9
313.286	4
317.241	5
319.257	10
335.253	5
337.272	123
337.302	3
339.292	8
341.252	5
357.238	3
365.266	3
391.287	7
459.335	2
467.401	2
491.413	14
493.419	9
511.376	8
513.392	12
517.425	7
519.439	999
521.442	8
539.414	7
541.419	223
543.425	8
543.447	12
545.47	10
547.475	11
549.483	8
551.493	22
551.511	23
564.467	6
565.469	36
565.491	42
567.42	49
567.44	90
567.464	20
569.458	8
571.473	20
573.489	443
577.521	42
579.526	7
595.465	16
597.488	12
599.503	60
601.506	8
621.464	42
621.49	207
623.486	6
755.608	4
756.608	34
756.633	8
756.655	6
765.629	1
773.517	3
793.629	241
803.666	12
821.658	73
821.699	12
838.65	45
838.691	158
838.738	20
