Mass spectrum: TG 58:11; LC-ESI-QTOF; MS2
Name: TG 58:11
Class:  TAG
Formula: C61H96O6
Exact mass: 925.433
SMILES: CCCCC\C=C/C\C=C/C\C=C/C\C=C/CCCC(=O)OCC(COC(=O)CCCCCCCCC\C=C/C=C\C=C/CC)OC(=O)CCC\C=C/C\C=C/C\C=C/C\C=C/CCCCC
InChI: InChI=1S/C61H96O6/c1-4-7-10-13-16-19-22-25-28-30-33-36-39-42-45-48-51-54-60(63)66-57-58(56-65-59(62)53-50-47-44-41-38-35-32-27-24-21-18-15-12-9-6-3)67-61(64)55-52-49-46-43-40-37-34-31-29-26-23-20-17-14-11-8-5-2/h9,12,15-21,24-26,28-29,33-34,36-37,42-43,45-46,58H,4-8,10-11,13-14,22-23,27,30-32,35,38-41,44,47-57H2,1-3H3/b12-9-,18-15-,19-16-,20-17-,24-21-,28-25-,29-26-,36-33-,37-34-,45-42-,46-43-
Instrument: AB Sciex TripleTOF 5600+ system (Q-TOF) equipped with a DuoSpray ion source
Instrument type: LC-ESI-QTOF
Ms type: MS2
Ion mode: POSITIVE
Collision energy: 45V
Column name: Acquity UPLC Peptide BEH C18 column (50*2.1 mm; 1.7 um; 130A)(Waters Co.,Milford, MA, USA)
Retention time: 13.81193
Precursor type: [M+NH4]+
Precursor m/z: 942.7431
Intensity: 775
m/z	relative intensity
81.069	38
93.069	24
95.085	21
105.071	17
107.087	17
109.099	20
117.07	17
119.086	17
121.1	20
133.102	20
145.101	24
161.134	24
171.121	24
173.127	20
175.145	20
186.993	57
187.008	20
187.15	27
211.139	24
215.18	17
223.146	29
227.182	22
263.237	31
268.998	152
269.014	42
285.241	13
293.226	55
309.219	17
311.233	59
313.261	20
317.241	17
319.251	13
335.256	27
337.272	41
342.959	11
368.949	17
390.996	10
433.01	42
450.95	17
515.013	13
532.955	13
595.471	28
596.455	43
596.491	38
597.482	999
598.487	39
599.502	31
614.94	11
645.466	45
645.499	95
647.482	31
647.491	49
647.505	138
647.53	21
696.503	10
696.967	24
697.51	10
721.011	6
761.441	6
761.552	6
778.984	7
907.724	6
925.711	38
925.755	31
939.777	6
942.644	14
942.722	162
942.758	106
942.776	60
942.814	42
943.761	10
