Mass spectrum: TG 50:4; LC-ESI-QTOF; MS2
Name: TG 50:4
Class:  TAG
Formula: C53H94O6
Exact mass: 827.329
SMILES: CCCCCCCCCCCCCC(=O)OCC(COC(=O)CCCCCCCC\C=C/C=C\CCCCC)OC(=O)CCCCCCCC\C=C/C=C\CCCCC
InChI: InChI=1S/C53H94O6/c1-4-7-10-13-16-19-22-24-26-28-31-34-37-40-43-46-52(55)58-49-50(48-57-51(54)45-42-39-36-33-30-21-18-15-12-9-6-3)59-53(56)47-44-41-38-35-32-29-27-25-23-20-17-14-11-8-5-2/h16-17,19-20,22-25,50H,4-15,18,21,26-49H2,1-3H3/b19-16-,20-17-,24-22-,25-23-
Instrument: AB Sciex TripleTOF 5600+ system (Q-TOF) equipped with a DuoSpray ion source
Instrument type: LC-ESI-QTOF
Ms type: MS2
Ion mode: POSITIVE
Collision energy: 45V
Column name: Acquity UPLC Peptide BEH C18 column (50*2.1 mm; 1.7 um; 130A)(Waters Co.,Milford, MA, USA)
Retention time: 13.97794
Precursor type: [M+NH4]+
Precursor m/z: 844.736
Intensity: 8181
m/z	relative intensity
79.055	7
81.068	23
83.085	6
85.101	9
91.055	4
93.068	9
95.084	14
97.102	6
107.085	5
109.101	20
111.116	6
121.101	11
123.116	14
133.101	5
135.116	11
137.131	7
147.117	8
149.131	7
161.131	7
163.145	10
173.128	5
175.147	9
186.994	11
189.163	5
211.208	22
217.193	8
235.203	6
239.234	7
243.208	7
245.225	14
261.218	26
261.231	11
263.236	41
265.254	8
268.996	13
285.246	23
291.226	1
297.274	4
299.238	2
311.26	6
313.271	8
317.231	2
317.25	9
319.259	11
319.281	2
335.262	5
337.259	4
337.277	16
337.294	2
339.295	8
341.291	1
341.312	1
350.993	2
352.969	2
391.281	2
433.004	4
465.384	1
473.428	2
507.448	2
514.993	2
521.467	3
523.467	4
525.467	4
543.427	2
543.463	2
543.494	2
545.452	53
545.471	24
545.753	4
547.472	999
548.447	2
548.482	8
549.467	36
549.488	150
549.532	3
550.484	2
571.459	98
571.479	112
571.508	13
573.49	160
575.499	135
577.504	3
577.54	2
599.504	512
599.567	3
600.506	6
600.534	2
601.507	16
601.544	4
603.539	11
617.512	3
627.523	3
715.607	2
729.617	2
809.677	5
809.703	7
809.743	5
827.671	9
827.696	56
827.72	41
827.736	27
827.784	2
828.725	3
844.664	2
844.724	86
844.753	59
845.742	3
