Mass spectrum: TG 53:3; LC-ESI-QTOF; MS2
Name: TG 53:3
Class:  TAG
Formula: C56H102O6
Exact mass: 871.426
SMILES: CCCCCCCCCCCCCCCC(=O)OCC(COC(=O)CCCCCCC\C=C/CCCCCCCCC)OC(=O)CCCCCCCC\C=C/C=C\CCCCC
InChI: InChI=1S/C56H102O6/c1-4-7-10-13-16-19-22-25-27-29-31-34-37-40-43-46-49-55(58)61-52-53(51-60-54(57)48-45-42-39-36-33-30-24-21-18-15-12-9-6-3)62-56(59)50-47-44-41-38-35-32-28-26-23-20-17-14-11-8-5-2/h17,20,23,26-27,29,53H,4-16,18-19,21-22,24-25,28,30-52H2,1-3H3/b20-17-,26-23-,29-27-
Instrument: AB Sciex TripleTOF 5600+ system (Q-TOF) equipped with a DuoSpray ion source
Instrument type: LC-ESI-QTOF
Ms type: MS2
Ion mode: POSITIVE
Collision energy: 45V
Column name: Acquity UPLC Peptide BEH C18 column (50*2.1 mm; 1.7 um; 130A)(Waters Co.,Milford, MA, USA)
Retention time: 14.68048
Precursor type: [M+NH4]+
Precursor m/z: 888.7994
Intensity: 135976
m/z	relative intensity
71.049	0
71.085	7
77.038	1
79.054	7
81.07	33
83.084	17
85.064	1
85.1	7
91.054	3
93.069	9
95.085	41
97.065	2
97.101	19
99.08	2
99.117	2
105.071	2
107.086	7
109.101	26
111.081	2
111.116	9
113.095	1
119.085	2
121.101	17
123.116	19
125.096	1
125.131	2
127.111	1
133.099	4
135.116	15
137.132	10
139.111	2
139.145	0
141.119	0
141.127	1
147.106	0
147.117	3
149.132	11
151.112	0
151.148	8
153.128	3
155.145	1
161.131	6
163.146	9
165.165	6
167.14	1
169.16	0
175.148	8
177.163	5
179.18	3
181.16	1
189.152	1
189.165	3
191.178	2
193.155	1
193.165	0
203.181	2
205.192	1
207.176	1
217.191	1
219.213	1
221.188	1
221.226	1
225.223	1
233.224	4
235.237	2
235.251	1
237.22	1
239.236	7
243.209	0
245.225	24
247.241	16
251.237	12
253.251	19
259.237	0
261.218	1
261.257	3
263.207	0
263.236	61
265.252	53
267.267	1
271.261	0
273.264	0
275.271	0
277.215	0
277.252	1
279.226	0
279.268	10
280.263	0
281.285	0
282.267	0
282.284	0
283.246	0
287.23	0
289.248	0
291.26	0
291.28	0
293.28	0
299.261	0
301.252	1
307.259	0
309.288	0
311.25	1
311.298	0
313.27	4
313.289	1
317.246	0
319.264	14
321.266	0
321.28	2
323.301	0
325.262	1
325.274	3
327.289	23
335.262	1
335.29	0
337.228	0
337.271	12
338.249	0
339.288	31
341.303	2
351.28	0
353.303	5
355.32	0
367.328	0
379.291	0
391.283	0
393.3	0
401.369	0
417.357	0
417.403	0
435.356	0
461.378	0
465.408	0
515.482	2
527.481	2
541.505	0
545.489	1
549.487	0
561.485	21
561.51	4
563.498	4
565.507	0
573.485	23
573.513	4
575.502	295
576.487	0
576.51	2
577.479	1
577.515	27
587.504	73
587.667	1
587.695	1
589.515	999
590.513	57
590.535	57
591.532	818
591.576	4
592.512	27
592.539	80
592.56	47
593.547	2
599.646	2
601.516	726
602.494	0
602.522	8
603.533	317
604.532	2
605.539	2
605.563	3
615.533	286
615.589	1
616.529	2
616.554	0
617.55	46
618.555	0
629.528	6
629.553	20
631.563	1
669.475	0
671.593	0
675.543	0
675.629	0
687.621	0
689.583	0
715.645	0
731.623	0
745.622	0
747.651	0
759.664	0
773.638	0
773.712	0
787.71	0
829.715	0
853.747	5
853.777	6
853.806	1
869.043	0
869.718	5
869.734	3
869.756	11
871.774	59
872.747	0
872.783	0
872.809	0
885.976	0
886.022	0
886.103	0
887.759	0
888.797	142
888.857	2
889.748	0
889.781	1
889.816	1
