Mass spectrum: BMP 40:8; LC-ESI-QTOF; MS2
Name: BMP 40:8
Class:  BMP
Formula: C46H75O10P
Exact mass: 819.072
SMILES: CC\C=C/C\C=C/C\C=C/C\C=C/CCCCCCC(=O)OC(CO)COP(O)(=O)OCC(CO)OC(=O)CCCCCC\C=C/C\C=C/C\C=C/C\C=C/CC
InChI: InChI=1S/C46H75O10P/c1-3-5-7-9-11-13-15-17-19-21-23-25-27-29-31-33-35-37-45(49)55-43(39-47)41-53-57(51,52)54-42-44(40-48)56-46(50)38-36-34-32-30-28-26-24-22-20-18-16-14-12-10-8-6-4-2/h5-8,11-14,17-20,23-26,43-44,47-48H,3-4,9-10,15-16,21-22,27-42H2,1-2H3,(H,51,52)/b7-5-,8-6-,13-11-,14-12-,19-17-,20-18-,25-23-,26-24-
Instrument: AB Sciex TripleTOF 5600+ system (Q-TOF) equipped with a DuoSpray ion source
Instrument type: LC-ESI-QTOF
Ms type: MS2
Ion mode: POSITIVE
Collision energy: 45V
Column name: Acquity UPLC Peptide BEH C18 column (50*2.1 mm; 1.7 um; 130A)(Waters Co.,Milford, MA, USA)
Retention time: 7.888066
Precursor type: [M+NH4]+
Precursor m/z: 836.5427
Intensity: 1536
m/z	relative intensity
81.067	15
91.054	8
93.07	8
95.086	10
109.1	8
128.949	12
133.101	6
147.114	6
169.1	7
171.121	8
175.149	10
201.173	6
245.23	8
263.233	8
283.243	3
293.231	8
295.247	3
307.263	3
311.23	10
336.226	14
336.479	3
337.274	999
338.264	3
341.308	5
344.906	3
367.255	5
384.085	5
385.15	3
385.274	496
386.276	5
496.805	3
520.82	5
544.794	6
647.511	30
651.525	13
651.547	32
783.468	13
783.504	15
783.529	10
801.509	3
836.563	5
836.62	5
