Mass spectrum: TG 54:3; LC-ESI-QTOF; MS2
Name: TG 54:3
Class:  TAG
Formula: C57H104O6
Exact mass: 885.453
SMILES: CCCCCC\C=C/CCCCCCCCCC(=O)OCC(COC(=O)CCCCCCCCC\C=C/CCCCCC)OC(=O)CCCCCCCCC\C=C/CCCCCC
InChI: InChI=1S/C57H104O6/c1-4-7-10-13-16-19-22-25-28-31-34-37-40-43-46-49-55(58)61-52-54(63-57(60)51-48-45-42-39-36-33-30-27-24-21-18-15-12-9-6-3)53-62-56(59)50-47-44-41-38-35-32-29-26-23-20-17-14-11-8-5-2/h19-24,54H,4-18,25-53H2,1-3H3/b22-19-,23-20-,24-21-
Instrument: AB Sciex TripleTOF 5600+ system (Q-TOF) equipped with a DuoSpray ion source
Instrument type: LC-ESI-QTOF
Ms type: MS2
Ion mode: POSITIVE
Collision energy: 45V
Column name: Acquity UPLC Peptide BEH C18 column (50*2.1 mm; 1.7 um; 130A)(Waters Co.,Milford, MA, USA)
Retention time: 14.79357
Precursor type: [M+NH4]+
Precursor m/z: 902.8211
Intensity: 344
m/z	relative intensity
81.067	20
93.075	20
95.089	31
151.148	20
186.998	20
247.239	31
263.229	20
265.251	62
282.997	20
339.292	31
473.002	23
512.982	20
515.009	23
575.502	41
577.505	31
579.538	43
594.989	20
599.504	41
601.511	54
601.548	23
603.5	73
603.532	999
603.562	115
605.558	52
629.568	52
867.789	20
881.742	146
881.78	148
885.786	52
902.504	94
902.612	23
902.808	156
902.846	31
