Mass spectrum: TG 60:10; LC-ESI-QTOF; MS2
Name: TG 60:10
Class:  TAG
Formula: C63H102O6
Exact mass: 955.503
SMILES: CCCCCCCCCCCCCCCC(=O)OCC(COC(=O)CCCCC\C=C/C\C=C/C\C=C/C\C=C/C\C=C/CC)OC(=O)CCCCC\C=C/C\C=C/C\C=C/C\C=C/C\C=C/CC
InChI: InChI=1S/C63H102O6/c1-4-7-10-13-16-19-22-25-27-29-31-33-35-38-41-44-47-50-53-56-62(65)68-59-60(58-67-61(64)55-52-49-46-43-40-37-24-21-18-15-12-9-6-3)69-63(66)57-54-51-48-45-42-39-36-34-32-30-28-26-23-20-17-14-11-8-5-2/h7-8,10-11,16-17,19-20,25-28,31-34,38-39,41-42,60H,4-6,9,12-15,18,21-24,29-30,35-37,40,43-59H2,1-3H3/b10-7-,11-8-,19-16-,20-17-,27-25-,28-26-,33-31-,34-32-,41-38-,42-39-
Instrument: AB Sciex TripleTOF 5600+ system (Q-TOF) equipped with a DuoSpray ion source
Instrument type: LC-ESI-QTOF
Ms type: MS2
Ion mode: POSITIVE
Collision energy: 45V
Column name: Acquity UPLC Peptide BEH C18 column (50*2.1 mm; 1.7 um; 130A)(Waters Co.,Milford, MA, USA)
Retention time: 14.22304
Precursor type: [M+NH4]+
Precursor m/z: 972.8002
Intensity: 1467
m/z	relative intensity
91.054	117
95.085	117
135.121	71
159.113	66
173.133	83
175.147	102
183.119	50
201.165	105
283.253	33
293.222	217
295.244	33
301.204	33
311.234	237
329.015	33
339.284	160
342.33	33
365.302	33
386.265	33
433.353	33
575.499	88
576.509	200
625.509	83
625.52	85
625.527	102
626.533	100
627.508	275
627.515	618
627.522	690
627.529	792
627.538	999
627.547	433
627.575	294
647.496	187
649.502	152
649.515	152
649.536	133
649.553	83
653.517	100
673.515	175
673.522	175
673.529	173
675.523	102
675.537	83
675.556	152
699.531	108
878.724	150
904.735	133
906.756	66
955.744	83
955.761	118
955.778	341
972.763	290
972.798	698
972.817	102
972.856	168
