Mass spectrum: TG 56:3; LC-ESI-QTOF; MS2
Name: TG 56:3
Class:  TAG
Formula: C59H108O6
Exact mass: 913.5070000000001
SMILES: CCCCCCCC\C=C/CCCCCCCCCC(=O)OCC(COC(=O)CCCCCCCCC\C=C/CCCCCC)OC(=O)CCCCCCCCC\C=C/CCCCCC
InChI: InChI=1S/C59H108O6/c1-4-7-10-13-16-19-22-25-28-29-32-34-37-40-43-46-49-52-58(61)64-55-56(65-59(62)53-50-47-44-41-38-35-31-27-24-21-18-15-12-9-6-3)54-63-57(60)51-48-45-42-39-36-33-30-26-23-20-17-14-11-8-5-2/h20-21,23-25,28,56H,4-19,22,26-27,29-55H2,1-3H3/b23-20-,24-21-,28-25-
Instrument: AB Sciex TripleTOF 5600+ system (Q-TOF) equipped with a DuoSpray ion source
Instrument type: LC-ESI-QTOF
Ms type: MS2
Ion mode: POSITIVE
Collision energy: 45V
Column name: Acquity UPLC Peptide BEH C18 column (50*2.1 mm; 1.7 um; 130A)(Waters Co.,Milford, MA, USA)
Retention time: 15.24211
Precursor type: [M+NH4]+
Precursor m/z: 930.846
Intensity: 925
m/z	relative intensity
81.071	8
83.085	6
95.084	8
97.102	8
109.102	9
121.098	5
135.116	8
163.148	5
226.985	6
239.235	5
247.237	14
263.235	6
265.243	11
265.257	17
268.996	6
275.273	6
288.246	3
293.284	18
313.265	6
319.267	3
321.314	3
339.276	8
339.297	9
348.983	5
367.319	7
390.999	2
430.998	2
472.999	3
474.981	2
575.49	47
575.507	41
577.515	32
577.536	14
597.479	7
599.482	14
599.515	7
601.526	17
603.494	16
603.534	504
603.569	47
604.529	13
605.539	20
605.557	30
605.573	16
625.497	9
625.523	16
627.498	18
627.538	31
627.562	9
629.544	18
629.586	12
631.565	999
632.552	11
632.582	50
633.558	18
633.581	39
653.525	16
653.566	12
657.57	48
657.593	47
659.585	19
659.616	9
685.609	2
774.906	2
883.792	7
895.815	7
906.93	5
906.984	5
909.776	809
909.812	308
909.855	31
910.788	20
910.806	13
910.846	5
913.805	5
913.827	15
913.85	9
930.803	16
930.83	59
930.862	70
930.915	12
931.883	5
