Mass spectrum: TG 56:6; LC-ESI-QTOF; MS2
Name: TG 56:6
Class:  TAG
Formula: C59H102O6
Exact mass: 907.4590000000001
SMILES: CCCCCCCCCCCCCCCC(=O)OCC(COC(=O)CCCCC\C=C/C\C=C/C\C=C/C\C=C/C\C=C/CC)OC(=O)CCCCCCCCC\C=C/CCCCCC
InChI: InChI=1S/C59H102O6/c1-4-7-10-13-16-19-22-25-27-28-29-30-32-34-37-40-43-46-49-52-58(61)64-55-56(54-63-57(60)51-48-45-42-39-36-33-24-21-18-15-12-9-6-3)65-59(62)53-50-47-44-41-38-35-31-26-23-20-17-14-11-8-5-2/h7,10,16,19-20,23,25,27,29-30,34,37,56H,4-6,8-9,11-15,17-18,21-22,24,26,28,31-33,35-36,38-55H2,1-3H3/b10-7-,19-16-,23-20-,27-25-,30-29-,37-34-
Instrument: AB Sciex TripleTOF 5600+ system (Q-TOF) equipped with a DuoSpray ion source
Instrument type: LC-ESI-QTOF
Ms type: MS2
Ion mode: POSITIVE
Collision energy: 45V
Column name: Acquity UPLC Peptide BEH C18 column (50*2.1 mm; 1.7 um; 130A)(Waters Co.,Milford, MA, USA)
Retention time: 14.51854
Precursor type: [M+NH4]+
Precursor m/z: 924.7964
Intensity: 15238
m/z	relative intensity
71.084	4
79.054	7
81.069	14
83.086	9
85.103	3
91.054	11
93.07	6
95.085	23
97.104	4
105.066	7
107.084	7
109.101	8
117.068	6
119.085	10
121.101	14
123.115	5
129.067	3
131.086	8
133.101	9
135.117	9
137.133	3
143.085	4
147.117	7
149.133	5
157.1	4
159.12	3
161.135	6
163.147	6
171.116	13
173.13	8
175.147	12
177.163	6
185.131	12
187.145	10
189.127	4
189.163	14
191.179	8
199.147	12
201.162	9
203.142	3
203.179	82
213.163	8
215.177	5
227.183	4
239.238	4
241.197	3
243.215	3
245.225	9
247.241	13
259.205	4
259.243	5
263.238	10
265.252	32
267.268	5
268.999	6
269.226	83
271.235	3
282.28	1
285.218	4
287.237	98
289.248	2
291.277	1
295.245	2
297.265	2
311.248	1
313.239	1
313.256	5
313.272	5
315.266	4
319.25	1
319.269	4
321.281	2
323.293	1
325.258	1
337.275	46
339.288	120
341.303	46
343.261	9
359.263	1
361.283	2
365.319	2
371.284	1
391.287	1
393.31	3
395.306	1
433.009	1
515.011	2
531.46	2
549.477	3
551.476	5
575.5	46
575.528	8
576.491	7
577.511	30
577.536	8
578.534	10
597.483	9
597.501	4
598.459	4
598.481	29
598.497	8
598.518	4
599.521	4
600.502	17
600.537	3
601.51	4
601.528	10
601.636	2
601.664	2
602.505	8
602.529	12
603.534	999
604.525	5
604.545	5
605.565	2
623.499	136
623.534	8
624.476	5
624.524	7
625.516	248
626.529	2
627.528	109
629.558	4
641.515	3
643.548	2
651.517	10
651.536	23
651.559	5
697.575	0
739.643	0
781.627	1
795.673	0
809.677	0
811.704	0
823.681	1
842.684	1
842.72	4
842.753	1
855.747	1
877.968	1
879.741	2
880.743	475
881.75	1
889.747	6
889.791	4
907.731	12
907.771	58
907.808	16
921.938	1
924.691	1
924.728	6
924.797	201
924.909	1
925.802	2
