Mass spectrum: TG 52:5; LC-ESI-QTOF; MS2
Name: TG 52:5
Class:  TAG
Formula: C55H96O6
Exact mass: 853.367
SMILES: CCCCCCCC\C=C/CCCCCC(=O)OCC(COC(=O)CCCCCCCC\C=C/C=C\CCCCC)OC(=O)CCCCCCCC\C=C/C=C\CCCCC
InChI: InChI=1S/C55H96O6/c1-4-7-10-13-16-19-22-25-27-30-33-36-39-42-45-48-54(57)60-51-52(50-59-53(56)47-44-41-38-35-32-29-24-21-18-15-12-9-6-3)61-55(58)49-46-43-40-37-34-31-28-26-23-20-17-14-11-8-5-2/h16-17,19-20,22-23,25-26,29,32,52H,4-15,18,21,24,27-28,30-31,33-51H2,1-3H3/b19-16-,20-17-,25-22-,26-23-,32-29-
Instrument: AB Sciex TripleTOF 5600+ system (Q-TOF) equipped with a DuoSpray ion source
Instrument type: LC-ESI-QTOF
Ms type: MS2
Ion mode: POSITIVE
Collision energy: 45V
Column name: Acquity UPLC Peptide BEH C18 column (50*2.1 mm; 1.7 um; 130A)(Waters Co.,Milford, MA, USA)
Retention time: 14.04381
Precursor type: [M+NH4]+
Precursor m/z: 870.7502
Intensity: 76370
m/z	relative intensity
71.084	6
77.036	2
79.054	13
81.069	42
83.053	1
83.085	13
85.064	1
85.101	5
91.053	8
93.069	16
95.085	41
97.063	2
97.1	10
99.079	2
105.07	5
107.085	13
109.101	25
111.079	2
111.115	4
113.095	2
117.07	2
119.085	4
121.101	23
123.116	20
125.095	1
125.131	1
127.112	1
131.087	4
133.102	10
135.116	19
137.1	1
137.131	12
139.111	1
141.128	1
145.102	5
147.116	10
149.095	0
149.132	15
151.147	3
153.126	2
157.099	1
159.117	7
161.133	14
163.109	0
163.148	14
165.124	1
165.162	3
167.143	2
169.099	0
171.116	2
173.131	9
175.147	16
177.126	1
177.163	7
179.143	1
179.181	1
181.16	2
183.117	1
185.133	2
187.147	5
189.162	6
191.179	2
193.156	2
197.131	1
199.146	2
201.161	2
201.172	0
203.176	3
205.154	0
205.195	1
207.171	1
211.149	1
211.203	2
212.21	1
213.162	2
215.181	3
217.194	2
219.169	1
219.21	11
221.188	1
221.226	1
223.148	0
225.162	1
227.179	1
229.193	1
231.213	1
233.183	0
233.223	2
233.235	1
235.206	4
237.221	22
239.175	0
239.236	18
241.193	2
243.21	16
245.227	25
247.246	2
255.21	0
259.205	4
261.18	0
261.22	70
263.203	1
263.236	68
265.253	8
269.229	1
271.245	0
273.223	0
275.198	0
275.232	0
277.214	1
279.229	1
280.267	0
281.225	0
283.24	0
285.242	2
286.241	0
287.246	0
289.251	2
291.23	0
293.229	1
293.248	1
294.229	3
295.232	0
299.233	2
301.246	1
309.241	1
311.255	20
312.238	2
313.239	0
313.274	20
314.275	0
314.287	0
315.224	0
315.238	1
315.277	0
317.248	26
319.262	17
321.279	0
333.235	1
333.257	1
335.253	10
335.267	3
337.273	38
339.286	12
343.305	0
345.278	1
383.337	0
387.367	0
391.28	0
393.309	0
399.367	0
403.283	0
415.358	0
435.349	0
451.378	0
461.362	0
473.364	0
479.417	1
481.453	0
487.391	0
495.439	1
497.444	2
499.451	6
501.409	1
501.467	0
505.44	1
507.443	0
515.435	0
517.458	1
521.439	2
521.463	6
523.467	29
524.474	43
525.476	43
529.43	1
541.44	1
541.47	2
543.477	3
545.456	1
547.461	9
547.485	4
549.482	7
549.501	3
561.478	1
571.471	168
571.697	1
573.484	999
574.49	4
574.515	0
575.501	511
576.493	0
576.512	1
577.507	2
577.526	4
581.488	0
587.497	1
589.492	1
591.48	0
591.5	1
595.458	1
595.621	1
596.461	5
596.481	6
597.486	377
598.48	1
598.499	1
599.501	557
600.504	3
601.517	63
603.527	1
603.554	0
613.494	0
615.489	2
615.517	1
617.507	2
623.503	1
624.494	2
624.515	3
625.512	19
627.523	0
683.599	0
685.531	0
699.562	0
711.639	0
713.568	0
727.563	0
727.606	0
729.58	0
729.621	0
741.565	0
741.6	1
741.627	1
743.618	0
755.601	0
755.628	0
755.657	0
757.635	0
769.621	1
769.65	0
769.667	0
771.649	0
783.638	0
783.661	0
783.68	0
794.719	0
797.674	0
817.694	0
835.714	33
835.779	0
851.048	0
853.726	149
853.801	0
854.718	1
854.748	0
868.054	0
870.751	140
871.011	0
871.513	0
871.737	0
871.782	0
