Mass spectrum: TG 49:1; LC-ESI-QTOF; MS2
Name: TG 49:1
Class:  TAG
Formula: C52H98O6
Exact mass: 819.35
SMILES: CCCCCCCCCCCCCCCC(=O)OC(COC(=O)CCCCCCCCCCCCCC)COC(=O)CCCCCCCCC\C=C/CCCCCC
InChI: InChI=1S/C52H98O6/c1-4-7-10-13-16-19-22-25-26-28-30-33-36-39-42-45-51(54)57-48-49(47-56-50(53)44-41-38-35-32-29-24-21-18-15-12-9-6-3)58-52(55)46-43-40-37-34-31-27-23-20-17-14-11-8-5-2/h19,22,49H,4-18,20-21,23-48H2,1-3H3/b22-19-
Instrument: AB Sciex TripleTOF 5600+ system (Q-TOF) equipped with a DuoSpray ion source
Instrument type: LC-ESI-QTOF
Ms type: MS2
Ion mode: POSITIVE
Collision energy: 45V
Column name: Acquity UPLC Peptide BEH C18 column (50*2.1 mm; 1.7 um; 130A)(Waters Co.,Milford, MA, USA)
Retention time: 14.58866
Precursor type: [M+NH4]+
Precursor m/z: 836.7702
Intensity: 3624
m/z	relative intensity
71.086	8
81.071	11
83.084	11
85.101	13
95.086	28
97.095	7
97.104	9
109.101	9
111.117	6
121.099	4
123.117	6
135.115	6
151.148	4
165.167	4
207.213	4
221.232	5
225.224	16
237.227	5
239.235	18
239.253	6
247.241	6
251.244	9
262.982	6
265.253	20
282.279	2
285.233	1
285.265	1
299.261	8
313.272	11
327.287	2
339.295	2
344.98	5
521.453	5
523.469	5
523.486	12
535.463	11
537.485	381
537.506	107
538.489	4
549.48	121
549.505	30
550.489	5
551.484	35
551.506	145
561.747	5
563.504	999
564.478	5
564.519	6
565.497	27
565.518	77
565.549	13
577.519	453
577.556	34
578.495	5
578.522	7
591.524	23
591.549	25
819.729	2
836.637	1
836.751	35
836.787	29
836.815	10
836.839	2
