Mass spectrum: BMP 42:10; LC-ESI-QTOF; MS2
Name: BMP 42:10
Class:  BMP
Formula: C48H75O10P
Exact mass: 843.094
SMILES: CC\C=C/C\C=C/C\C=C/C\C=C/CCCCCCC(=O)OC(CO)COP(O)(=O)OCC(CO)OC(=O)CC\C=C/C\C=C/C\C=C/C\C=C/C\C=C/C\C=C/CC
InChI: InChI=1S/C48H75O10P/c1-3-5-7-9-11-13-15-17-19-21-22-24-26-28-30-32-34-36-38-40-48(52)58-46(42-50)44-56-59(53,54)55-43-45(41-49)57-47(51)39-37-35-33-31-29-27-25-23-20-18-16-14-12-10-8-6-4-2/h5-8,11-14,17-20,22,24-25,27-28,30,34,36,45-46,49-50H,3-4,9-10,15-16,21,23,26,29,31-33,35,37-44H2,1-2H3,(H,53,54)/b7-5-,8-6-,13-11-,14-12-,19-17-,20-18-,24-22-,27-25-,30-28-,36-34-
Instrument: AB Sciex TripleTOF 5600+ system (Q-TOF) equipped with a DuoSpray ion source
Instrument type: LC-ESI-QTOF
Ms type: MS2
Ion mode: POSITIVE
Collision energy: 45V
Column name: Acquity UPLC Peptide BEH C18 column (50*2.1 mm; 1.7 um; 130A)(Waters Co.,Milford, MA, USA)
Retention time: 7.869142
Precursor type: [M+NH4]+
Precursor m/z: 860.5454
Intensity: 2009
m/z	relative intensity
79.052	15
81.07	17
91.055	22
93.069	18
95.087	12
105.069	13
107.082	10
117.069	12
119.084	20
121.1	12
131.084	19
133.099	12
157.101	15
171.118	21
173.133	10
175.148	13
185.131	17
187.149	15
197.124	10
199.145	14
201.16	12
203.18	51
213.164	10
269.225	47
271.241	4
287.232	10
293.221	9
311.235	6
329.242	3
359.257	5
360.146	4
361.273	903
362.28	3
385.274	999
386.284	3
497.251	2
671.501	27
671.55	4
767.145	14
772.42	2
798.465	2
807.492	3
825.512	5
843.515	8
860.517	3
860.623	2
