Mass spectrum: TG 55:4; LC-ESI-QTOF; MS2
Name: TG 55:4
Class:  TAG
Formula: C58H104O6
Exact mass: 897.4639999999999
SMILES: CCCCCCCCC\C=C/CCCCCCCC(=O)OCC(COC(=O)CCCCCCCCC\C=C/CCCCCC)OC(=O)CCCCCCCC\C=C/C=C\CCCCC
InChI: InChI=1S/C58H104O6/c1-4-7-10-13-16-19-22-25-28-31-33-36-39-42-45-48-51-57(60)63-54-55(64-58(61)52-49-46-43-40-37-34-30-27-24-21-18-15-12-9-6-3)53-62-56(59)50-47-44-41-38-35-32-29-26-23-20-17-14-11-8-5-2/h18,20-21,23-24,27-28,31,55H,4-17,19,22,25-26,29-30,32-54H2,1-3H3/b21-18-,23-20-,27-24-,31-28-
Instrument: AB Sciex TripleTOF 5600+ system (Q-TOF) equipped with a DuoSpray ion source
Instrument type: LC-ESI-QTOF
Ms type: MS2
Ion mode: POSITIVE
Collision energy: 45V
Column name: Acquity UPLC Peptide BEH C18 column (50*2.1 mm; 1.7 um; 130A)(Waters Co.,Milford, MA, USA)
Retention time: 14.40542
Precursor type: [M+NH4]+
Precursor m/z: 914.8079
Intensity: 4482
m/z	relative intensity
79.054	7
81.068	18
83.086	9
93.07	9
95.084	21
97.1	7
107.084	7
109.103	16
123.117	8
135.115	7
163.149	7
175.151	7
177.162	7
238.228	11
245.217	10
245.23	13
246.231	9
247.24	16
248.239	7
261.221	13
263.224	9
263.239	40
263.274	9
264.241	34
265.25	40
266.257	26
275.204	4
278.25	3
279.261	6
279.273	8
280.272	7
281.272	3
303.232	4
311.26	5
313.272	7
314.283	4
315.283	4
317.247	6
319.256	12
319.277	4
321.275	3
329.316	7
335.277	5
337.273	28
338.273	4
339.271	6
339.297	12
340.3	22
341.298	3
353.301	6
354.306	6
355.322	8
428.386	3
575.496	75
575.523	30
576.504	363
577.51	556
579.536	57
586.495	12
590.517	11
599.483	171
599.505	632
600.504	118
601.508	370
602.492	17
602.557	10
603.51	103
603.536	231
604.504	10
604.533	54
604.564	23
605.528	106
605.546	91
613.5	9
613.524	12
614.506	65
614.53	29
615.512	15
615.536	171
615.571	7
615.627	6
616.536	496
617.543	999
618.534	22
618.56	44
619.528	5
619.556	11
619.57	8
628.543	10
629.552	13
631.567	9
715.552	1
771.666	1
785.663	2
799.674	1
827.743	1
829.699	1
841.757	5
854.701	3
854.737	10
856.729	5
859.743	4
859.784	3
876.793	17
877.746	14
879.763	20
879.825	3
880.759	3
897.744	19
897.771	79
897.805	69
897.87	3
898.797	5
914.675	3
914.78	70
914.811	193
915.702	3
915.799	6
