Mass spectrum: TG 52:2; LC-ESI-QTOF; MS2
Name: TG 52:2
Class:  TAG
Formula: C55H102O6
Exact mass: 859.415
SMILES: CCCCCCCCCCCCCCCCCC(=O)OC(COC(=O)CCCCCCCCCCCCCCC)COC(=O)CCCCCCCC\C=C/C=C\CCCCC
InChI: InChI=1S/C55H102O6/c1-4-7-10-13-16-19-22-25-27-30-33-36-39-42-45-48-54(57)60-51-52(50-59-53(56)47-44-41-38-35-32-29-24-21-18-15-12-9-6-3)61-55(58)49-46-43-40-37-34-31-28-26-23-20-17-14-11-8-5-2/h16,19,22,25,52H,4-15,17-18,20-21,23-24,26-51H2,1-3H3/b19-16-,25-22-
Instrument: AB Sciex TripleTOF 5600+ system (Q-TOF) equipped with a DuoSpray ion source
Instrument type: LC-ESI-QTOF
Ms type: MS2
Ion mode: POSITIVE
Collision energy: 45V
Column name: Acquity UPLC Peptide BEH C18 column (50*2.1 mm; 1.7 um; 130A)(Waters Co.,Milford, MA, USA)
Retention time: 14.80049
Precursor type: [M+NH4]+
Precursor m/z: 876.8004
Intensity: 775370
m/z	relative intensity
71.048	1
71.086	17
77.039	1
79.055	9
81.07	48
83.049	0
83.086	40
85.065	2
85.101	20
91.053	1
93.07	13
95.086	64
97.065	2
97.102	35
99.08	3
99.117	4
101.096	0
105.07	0
107.086	9
109.102	49
111.081	1
111.117	18
113.096	1
113.132	1
119.084	0
121.102	36
123.117	25
125.097	2
125.133	6
127.112	2
127.149	1
129.128	0
133.102	1
135.117	35
137.133	13
139.111	3
139.148	1
141.126	1
141.164	0
143.143	0
147.118	0
149.133	19
151.149	12
153.129	6
153.162	0
155.144	0
155.181	0
161.132	0
163.149	11
165.164	14
167.143	3
169.159	1
175.149	1
177.165	6
179.178	3
181.159	1
183.174	1
189.164	1
191.18	4
193.194	0
195.177	1
205.195	3
209.189	0
219.208	1
221.228	8
223.171	0
223.206	0
237.214	0
237.224	1
239.238	90
245.227	3
247.243	65
247.271	0
249.261	0
256.263	2
257.249	1
263.239	8
264.429	0
265.254	242
266.258	0
267.269	2
267.283	0
275.256	0
275.278	0
279.229	0
279.243	0
279.274	0
282.28	2
283.253	0
284.298	0
285.246	0
291.264	0
293.25	0
293.286	0
295.262	0
297.277	0
297.292	0
299.295	0
303.27	0
303.286	0
307.278	0
311.25	0
311.262	0
312.306	0
313.275	41
319.258	0
319.271	0
321.281	8
323.282	0
323.297	1
337.269	0
337.286	0
338.245	0
339.291	59
341.301	1
341.314	1
367.286	0
391.392	0
393.303	0
417.412	0
431.406	0
503.487	2
511.485	0
529.499	3
547.51	0
549.462	1
549.492	15
551.498	2
575.505	248
575.706	3
575.725	3
576.509	1
576.537	0
576.581	0
576.945	0
577.316	0
577.389	1
577.519	999
578.156	2
578.218	0
578.317	2
578.702	0
578.739	21
578.787	0
578.905	8
579.09	13
579.288	0
579.455	0
579.533	121
580.545	0
582.063	0
582.503	0
582.718	0
583.418	0
584.807	0
589.542	0
591.521	0
591.546	0
601.626	2
601.644	4
601.664	3
603.411	1
603.534	814
603.994	0
604.328	0
604.551	18
604.781	0
605.549	79
627.565	0
631.559	1
631.58	2
679.58	0
841.742	1
841.773	2
841.814	0
842.748	0
859.54	0
859.778	28
860.786	0
874.042	0
874.073	0
874.102	0
876.299	0
876.394	0
876.633	0
876.804	83
876.888	0
877.752	0
877.792	0
877.819	0
878.341	0
