Mass spectrum: TG 53:1; LC-ESI-QTOF; MS2
Name: TG 53:1
Class:  TAG
Formula: C56H106O6
Exact mass: 875.458
SMILES: CCCCCCCCCCCCCCCCCC(=O)OC(COC(=O)CCCCCCCCCCCCCCC)COC(=O)CCCCCCC\C=C/CCCCCCCCC
InChI: InChI=1S/C56H106O6/c1-4-7-10-13-16-19-22-25-27-29-31-34-37-40-43-46-49-55(58)61-52-53(51-60-54(57)48-45-42-39-36-33-30-24-21-18-15-12-9-6-3)62-56(59)50-47-44-41-38-35-32-28-26-23-20-17-14-11-8-5-2/h27,29,53H,4-26,28,30-52H2,1-3H3/b29-27-
Instrument: AB Sciex TripleTOF 5600+ system (Q-TOF) equipped with a DuoSpray ion source
Instrument type: LC-ESI-QTOF
Ms type: MS2
Ion mode: POSITIVE
Collision energy: 45V
Column name: Acquity UPLC Peptide BEH C18 column (50*2.1 mm; 1.7 um; 130A)(Waters Co.,Milford, MA, USA)
Retention time: 15.37826
Precursor type: [M+NH4]+
Precursor m/z: 892.83
Intensity: 1611
m/z	relative intensity
81.069	16
83.085	14
85.099	11
95.085	16
97.1	21
111.117	11
123.115	22
135.12	11
186.993	53
187.006	11
239.236	51
247.243	21
253.251	11
265.24	21
265.255	21
268.998	107
281.286	9
297.017	4
313.271	9
321.275	7
339.098	7
341.303	4
348.984	4
355.313	9
384.96	4
396.909	4
433.003	28
549.482	29
551.504	31
563.513	24
565.529	29
577.496	97
577.515	614
577.535	158
579.503	21
579.518	17
579.534	75
579.555	36
591.501	47
591.531	433
593.549	653
605.546	278
605.581	26
607.567	26
619.534	81
619.564	999
621.583	26
633.581	28
782.939	5
845.695	13
875.793	9
892.594	4
892.759	31
892.792	21
892.8	24
892.823	114
892.848	75
892.867	19
893.77	4
897.913	4
