Mass spectrum: TG 60:7; LC-ESI-QTOF; MS2
Name: TG 60:7
Class:  TAG
Formula: C63H108O6
Exact mass: 961.551
SMILES: CCCCCCCC\C=C/CCCCCCCCCC(=O)OC(COC(=O)CCCCCCCC\C=C/C\C=C/C\C=C/C\C=C/CC)COC(=O)CCCCCCCC\C=C/C=C\CCCCC
InChI: InChI=1S/C63H108O6/c1-4-7-10-13-16-19-22-25-28-30-31-33-35-38-41-44-47-50-53-56-62(65)68-59-60(58-67-61(64)55-52-49-46-43-40-37-34-27-24-21-18-15-12-9-6-3)69-63(66)57-54-51-48-45-42-39-36-32-29-26-23-20-17-14-11-8-5-2/h7,10,16,18-19,21,24-29,31,33,60H,4-6,8-9,11-15,17,20,22-23,30,32,34-59H2,1-3H3/b10-7-,19-16-,21-18-,27-24-,28-25-,29-26-,33-31-
Instrument: AB Sciex TripleTOF 5600+ system (Q-TOF) equipped with a DuoSpray ion source
Instrument type: LC-ESI-QTOF
Ms type: MS2
Ion mode: POSITIVE
Collision energy: 45V
Column name: Acquity UPLC Peptide BEH C18 column (50*2.1 mm; 1.7 um; 130A)(Waters Co.,Milford, MA, USA)
Retention time: 14.76821
Precursor type: [M+NH4]+
Precursor m/z: 978.8442
Intensity: 615
m/z	relative intensity
95.089	99
109.098	99
121.1	74
187.149	74
203.182	202
215.179	148
217.193	148
226.988	148
265.251	79
268.996	188
285.236	99
301.206	79
315.275	301
319.258	79
327.227	74
339.29	123
341.284	74
344.98	123
367.328	153
371.296	198
399.328	74
433.0	99
456.964	123
500.993	99
601.502	247
601.539	148
603.511	123
603.544	247
629.52	198
629.53	400
629.547	999
629.58	321
631.546	108
639.528	99
651.501	222
651.526	420
651.551	321
653.542	297
655.572	99
656.551	103
657.579	297
677.546	222
679.553	470
680.588	99
681.578	826
681.641	74
694.876	79
705.594	128
712.901	74
856.745	123
863.713	103
881.741	420
881.783	173
882.749	99
896.75	297
896.81	148
897.755	84
907.782	148
943.813	212
945.815	371
961.775	193
961.814	173
961.836	495
978.754	272
978.811	420
978.846	628
978.877	247
978.908	148
