Mass spectrum: TG 58:8; LC-ESI-QTOF; MS2
Name: TG 58:8
Class:  TAG
Formula: C61H102O6
Exact mass: 931.481
SMILES: CCCCCC\C=C/CCCCCCCCCC(=O)OCC(COC(=O)CC\C=C/C\C=C/C\C=C/C\C=C/C\C=C/C\C=C/CC)OC(=O)CCCCCCCCC\C=C/CCCCCC
InChI: InChI=1S/C61H102O6/c1-4-7-10-13-16-19-22-25-28-29-30-31-34-36-39-42-45-48-51-54-60(63)66-57-58(67-61(64)55-52-49-46-43-40-37-33-27-24-21-18-15-12-9-6-3)56-65-59(62)53-50-47-44-41-38-35-32-26-23-20-17-14-11-8-5-2/h7,10,16,19-21,23-25,28,30-31,36,39,45,48,58H,4-6,8-9,11-15,17-18,22,26-27,29,32-35,37-38,40-44,46-47,49-57H2,1-3H3/b10-7-,19-16-,23-20-,24-21-,28-25-,31-30-,39-36-,48-45-
Instrument: AB Sciex TripleTOF 5600+ system (Q-TOF) equipped with a DuoSpray ion source
Instrument type: LC-ESI-QTOF
Ms type: MS2
Ion mode: POSITIVE
Collision energy: 45V
Column name: Acquity UPLC Peptide BEH C18 column (50*2.1 mm; 1.7 um; 130A)(Waters Co.,Milford, MA, USA)
Retention time: 14.40555
Precursor type: [M+NH4]+
Precursor m/z: 948.7979
Intensity: 69491
m/z	relative intensity
71.084	3
77.037	2
79.054	9
81.069	22
83.085	10
85.065	1
85.1	3
91.054	10
93.069	11
95.085	25
97.064	1
97.101	12
99.079	1
105.069	6
107.085	9
109.101	18
111.081	1
111.117	6
113.096	1
115.053	1
117.069	5
119.085	8
121.101	16
123.116	8
125.097	1
125.132	2
129.069	4
131.085	9
133.101	7
135.081	1
135.117	13
137.131	3
139.113	1
141.071	1
143.086	4
145.101	7
147.084	1
147.116	5
149.095	1
149.132	7
151.147	3
153.128	2
155.086	3
157.1	6
159.078	1
159.116	10
161.098	1
161.133	8
163.11	1
163.148	7
165.164	3
167.085	2
167.144	1
169.101	10
171.116	11
173.096	1
173.133	9
175.111	2
175.148	8
177.13	1
177.163	3
179.181	1
181.102	5
183.118	7
185.097	1
185.132	11
187.112	3
187.147	7
189.126	3
189.164	3
191.183	1
195.118	4
197.132	6
199.111	1
199.147	8
201.126	3
201.165	13
203.142	2
203.18	4
205.194	1
209.133	7
211.148	12
213.127	1
213.162	11
215.144	2
215.177	10
217.16	1
221.132	1
223.147	11
225.164	7
227.143	3
227.18	18
229.158	4
229.191	1
229.201	1
237.164	7
239.176	2
239.186	2
241.159	6
241.194	2
243.177	2
245.223	2
245.235	1
247.242	15
249.26	1
251.181	4
253.195	2
255.17	2
263.239	10
265.195	4
265.252	50
267.212	5
267.268	6
269.228	11
277.195	0
279.226	0
281.206	0
281.232	0
282.282	0
283.203	1
283.242	5
285.183	0
285.275	0
291.212	2
291.268	0
293.226	53
295.25	0
301.252	0
303.209	0
309.223	3
311.237	67
312.245	0
313.273	0
319.261	2
319.279	0
321.223	0
321.281	2
323.294	1
325.222	0
327.23	0
329.248	0
337.274	9
339.29	67
341.304	18
349.262	0
353.312	0
367.266	6
369.282	0
383.248	1
383.264	1
385.264	1
385.281	2
391.276	0
393.301	5
395.309	0
395.325	0
435.349	0
437.353	0
449.371	0
463.383	0
473.359	0
489.401	0
499.384	0
525.383	0
527.422	0
529.515	0
539.467	0
541.43	0
555.429	0
555.467	0
557.461	0
557.483	1
565.43	0
573.454	1
573.474	1
575.482	4
575.51	0
585.494	0
593.48	0
599.507	7
599.534	1
601.515	11
601.648	3
601.684	1
603.431	0
603.533	999
604.198	0
604.536	20
604.556	11
605.529	1
613.513	2
613.546	0
615.514	2
615.534	14
615.558	3
617.558	0
621.485	2
623.465	0
623.502	1
623.521	0
627.532	0
647.501	93
648.505	0
648.529	0
649.517	372
650.522	3
650.551	1
651.535	67
652.541	1
665.493	0
665.513	1
667.502	0
667.534	3
669.539	0
675.51	0
675.541	1
675.578	0
677.551	0
699.607	0
725.613	0
737.627	0
751.605	0
755.599	0
763.641	0
769.641	0
791.645	0
795.667	0
803.689	0
807.678	0
809.642	0
821.67	0
823.701	0
830.687	0
830.726	0
833.677	0
835.664	0
835.711	0
847.667	0
847.726	0
849.704	0
854.714	0
861.694	0
861.73	0
865.728	0
866.719	2
866.775	0
880.743	0
889.73	0
895.74	0
895.766	1
895.796	0
903.762	0
912.77	0
912.801	0
912.847	0
913.694	0
913.735	2
913.77	4
913.803	1
931.775	66
931.849	0
932.737	0
932.773	0
932.806	1
945.834	0
945.868	0
948.799	163
949.795	6
949.839	1
