Mass spectrum: TG 50:3; LC-ESI-QTOF; MS2
Name: TG 50:3
Class:  TAG
Formula: C53H96O6
Exact mass: 829.345
SMILES: CCCCCCCCCCCCCCCC(=O)OCC(COC(=O)CCCCCCCC\C=C/C=C\CCCCC)OC(=O)CCCCC\C=C/CCCCCCCC
InChI: InChI=1S/C53H96O6/c1-4-7-10-13-16-19-22-25-26-29-31-34-37-40-43-46-52(55)58-49-50(59-53(56)47-44-41-38-35-32-28-24-21-18-15-12-9-6-3)48-57-51(54)45-42-39-36-33-30-27-23-20-17-14-11-8-5-2/h16,19,22,25,28,32,50H,4-15,17-18,20-21,23-24,26-27,29-31,33-49H2,1-3H3/b19-16-,25-22-,32-28-
Instrument: AB Sciex TripleTOF 5600+ system (Q-TOF) equipped with a DuoSpray ion source
Instrument type: LC-ESI-QTOF
Ms type: MS2
Ion mode: POSITIVE
Collision energy: 45V
Column name: Acquity UPLC Peptide BEH C18 column (50*2.1 mm; 1.7 um; 130A)(Waters Co.,Milford, MA, USA)
Retention time: 14.20807
Precursor type: [M+NH4]+
Precursor m/z: 846.7531
Intensity: 223930
m/z	relative intensity
71.05	1
71.085	9
77.038	2
79.053	8
81.069	42
83.085	23
85.064	2
85.1	7
91.054	3
93.069	12
95.084	48
97.065	2
97.1	17
99.08	2
99.116	1
105.068	2
107.085	9
109.1	30
111.079	2
111.116	11
113.095	2
113.132	0
119.084	3
121.1	25
123.116	20
125.094	1
125.129	2
127.11	2
133.1	3
135.116	22
137.131	15
139.113	2
139.149	0
141.123	1
147.115	4
149.131	13
151.146	6
153.124	4
155.141	1
159.115	0
161.132	8
163.147	11
165.164	4
167.143	2
175.148	8
177.163	6
179.144	1
179.174	1
179.184	0
181.154	0
181.164	0
189.164	3
191.177	1
193.16	1
193.195	0
203.177	2
205.194	0
207.176	1
209.192	0
211.205	10
217.196	1
219.21	22
221.188	0
221.225	3
235.169	0
235.203	0
237.22	60
239.236	27
245.227	19
247.239	7
249.183	0
256.26	1
257.248	0
261.221	1
263.237	60
265.252	28
271.248	0
273.264	0
275.24	0
277.21	0
279.234	0
280.264	0
282.273	0
283.223	0
283.243	0
285.241	6
291.226	0
291.265	0
293.244	2
293.263	0
295.265	1
297.281	0
301.241	0
301.258	0
301.272	0
307.271	0
309.242	0
311.226	0
311.256	21
312.262	0
313.273	20
314.278	0
317.251	0
319.264	14
321.278	2
323.299	0
331.29	0
333.274	0
335.234	0
335.258	1
337.272	11
339.272	1
339.289	8
361.338	0
365.268	0
367.282	0
375.332	0
377.271	0
377.351	0
387.368	0
391.287	0
403.374	0
405.302	0
415.4	0
437.367	0
447.372	0
449.358	0
451.365	0
461.36	0
463.366	0
465.393	0
473.44	0
475.377	0
475.445	0
481.435	0
499.433	1
499.452	2
499.475	0
501.466	2
517.466	1
519.424	1
519.445	1
521.44	0
521.464	1
522.458	2
523.463	7
523.484	2
524.457	1
524.479	9
527.496	0
533.462	0
545.458	1
545.478	0
545.757	0
545.779	0
547.47	559
547.78	0
548.472	17
549.39	0
549.484	755
550.458	1
550.477	4
550.494	5
561.462	0
561.488	1
563.49	0
571.694	1
571.713	0
573.331	0
573.485	653
573.897	0
574.482	0
575.275	0
575.5	999
576.131	0
576.506	23
577.488	2
577.518	5
589.527	0
591.512	0
593.507	0
599.632	0
601.517	255
603.534	18
603.576	0
604.537	0
629.548	1
673.608	0
675.549	0
689.563	0
691.569	0
717.627	0
731.62	0
731.658	0
745.621	0
745.688	0
811.7	4
811.724	4
811.743	1
821.733	0
821.773	0
829.724	41
844.065	0
844.14	0
846.575	0
846.751	110
