Mass spectrum: TG 44:0; LC-ESI-QTOF; MS2
Name: TG 44:0
Class:  TAG
Formula: C47H90O6
Exact mass: 751.231
SMILES: CCCCCCCCCCCCCCCC(=O)OCC(COC(=O)CCCCCCCCCCC)OC(=O)CCCCCCCCCCCCCCC
InChI: InChI=1S/C47H90O6/c1-4-7-10-13-16-19-21-23-25-28-31-34-37-40-46(49)52-43-44(42-51-45(48)39-36-33-30-27-18-15-12-9-6-3)53-47(50)41-38-35-32-29-26-24-22-20-17-14-11-8-5-2/h44H,4-43H2,1-3H3
Instrument: AB Sciex TripleTOF 5600+ system (Q-TOF) equipped with a DuoSpray ion source
Instrument type: LC-ESI-QTOF
Ms type: MS2
Ion mode: POSITIVE
Collision energy: 45V
Column name: Acquity UPLC Peptide BEH C18 column (50*2.1 mm; 1.7 um; 130A)(Waters Co.,Milford, MA, USA)
Retention time: 14.07719
Precursor type: [M+NH4]+
Precursor m/z: 768.7028
Intensity: 10726
m/z	relative intensity
71.087	24
81.066	14
81.073	12
83.084	22
85.101	22
95.085	34
97.101	10
99.118	7
109.096	12
109.104	12
111.115	7
123.116	14
125.133	3
137.135	8
183.168	10
183.177	8
193.194	6
211.207	60
221.23	4
239.238	35
257.211	4
285.243	7
313.278	5
467.407	22
493.886	4
493.918	3
495.44	962
495.64	2
521.848	8
523.469	999
551.456	4
551.485	57
551.502	246
579.506	3
579.536	10
579.568	5
686.444	4
768.594	1
768.698	18
768.736	11
