Mass spectrum: TG 49:3; LC-ESI-QTOF; MS2
Name: TG 49:3
Class:  TAG
Formula: C52H94O6
Exact mass: 815.318
SMILES: CCCCCCCCCCCCCCCC(=O)OC(COC(=O)CCCCCCCC\C=C/C=C\CCCCC)COC(=O)CCCCCCC\C=C/CCCCC
InChI: InChI=1S/C52H94O6/c1-4-7-10-13-16-19-22-25-26-28-30-33-36-39-42-45-51(54)57-48-49(47-56-50(53)44-41-38-35-32-29-24-21-18-15-12-9-6-3)58-52(55)46-43-40-37-34-31-27-23-20-17-14-11-8-5-2/h16,18-19,21-22,25,49H,4-15,17,20,23-24,26-48H2,1-3H3/b19-16-,21-18-,25-22-
Instrument: AB Sciex TripleTOF 5600+ system (Q-TOF) equipped with a DuoSpray ion source
Instrument type: LC-ESI-QTOF
Ms type: MS2
Ion mode: POSITIVE
Collision energy: 45V
Column name: Acquity UPLC Peptide BEH C18 column (50*2.1 mm; 1.7 um; 130A)(Waters Co.,Milford, MA, USA)
Retention time: 14.04141
Precursor type: [M+NH4]+
Precursor m/z: 832.7371
Intensity: 3443
m/z	relative intensity
71.086	16
79.054	25
81.068	39
81.075	32
93.071	23
95.086	71
109.102	62
111.117	17
121.101	35
123.113	22
123.124	16
135.116	20
147.123	16
151.145	16
161.13	19
163.147	19
175.149	29
203.181	22
219.208	19
221.19	25
225.218	19
237.22	44
239.233	16
245.218	19
263.228	29
263.253	16
295.234	6
299.243	9
299.275	6
311.264	22
313.275	45
317.254	9
319.263	19
325.278	7
337.273	20
339.278	32
339.309	25
465.395	7
533.446	114
533.469	189
535.473	943
537.492	25
547.473	431
549.484	45
559.472	189
559.495	72
561.492	999
563.522	12
573.487	672
575.513	120
577.516	160
577.535	137
587.513	205
587.546	19
589.502	19
589.539	19
601.523	91
797.71	23
811.686	91
815.716	35
832.531	7
832.588	8
832.728	58
832.747	48
832.761	22
832.785	16
