Mass spectrum: TG 54:4; LC-ESI-QTOF; MS2
Name: TG 54:4
Class:  TAG
Formula: C57H102O6
Exact mass: 883.437
SMILES: CCCCCC\C=C/CCCCCCCCCC(=O)OCC(COC(=O)CCCCCCCC\C=C/C=C\CCCCC)OC(=O)CCCCCCCCC\C=C/CCCCCC
InChI: InChI=1S/C57H102O6/c1-4-7-10-13-16-19-22-25-28-31-34-37-40-43-46-49-55(58)61-52-54(63-57(60)51-48-45-42-39-36-33-30-27-24-21-18-15-12-9-6-3)53-62-56(59)50-47-44-41-38-35-32-29-26-23-20-17-14-11-8-5-2/h16,19-25,54H,4-15,17-18,26-53H2,1-3H3/b19-16-,23-20-,24-21-,25-22-
Instrument: AB Sciex TripleTOF 5600+ system (Q-TOF) equipped with a DuoSpray ion source
Instrument type: LC-ESI-QTOF
Ms type: MS2
Ion mode: POSITIVE
Collision energy: 45V
Column name: Acquity UPLC Peptide BEH C18 column (50*2.1 mm; 1.7 um; 130A)(Waters Co.,Milford, MA, USA)
Retention time: 14.57378
Precursor type: [M+NH4]+
Precursor m/z: 900.7997
Intensity: 1013062
m/z	relative intensity
71.049	2
71.086	7
77.038	4
79.055	20
81.07	71
83.05	1
83.086	38
85.066	4
85.101	8
91.054	5
93.07	29
95.086	84
97.064	2
97.101	35
99.08	6
99.118	1
101.096	0
105.07	6
107.086	22
109.102	58
111.081	1
111.117	18
113.097	5
113.13	0
115.112	0
117.071	0
119.086	8
121.102	52
123.081	0
123.117	38
125.096	1
125.133	5
127.112	4
129.128	0
131.085	1
133.102	13
135.118	49
137.096	1
137.132	21
139.112	5
139.148	1
141.128	2
145.102	0
147.118	10
149.133	31
151.113	1
151.149	17
153.129	9
155.144	1
157.1	0
159.117	2
161.133	21
163.148	32
165.123	1
165.136	0
165.165	17
167.143	4
167.178	0
169.159	1
173.132	3
175.149	22
177.137	0
177.164	13
179.144	1
179.18	5
181.161	2
183.173	0
185.136	0
187.15	2
189.165	9
191.179	6
193.159	3
193.195	1
195.14	0
195.177	1
199.145	1
201.163	1
203.181	4
205.16	0
205.195	4
207.174	3
209.153	1
213.162	1
215.178	0
217.196	2
219.213	2
221.155	0
221.191	2
221.225	0
223.17	0
231.216	0
233.186	0
233.227	0
235.171	1
235.203	0
235.247	0
237.189	0
237.223	0
239.229	0
239.241	2
243.211	3
245.227	63
247.243	60
249.186	2
249.221	0
249.258	2
261.223	12
261.254	0
263.238	223
264.43	0
265.253	212
266.257	0
267.268	10
271.204	0
271.24	1
271.252	0
273.224	0
273.253	0
275.237	0
275.28	0
277.214	1
277.257	0
279.23	1
279.271	0
280.266	0
282.278	2
282.296	0
283.245	0
284.293	0
285.26	0
285.281	0
287.233	0
287.255	0
289.215	0
289.254	6
291.227	0
291.269	2
293.241	0
293.293	0
295.237	0
299.235	0
301.253	2
303.271	1
305.243	0
305.289	0
307.263	0
311.257	0
313.274	3
313.296	0
315.279	0
317.239	1
317.254	2
317.278	0
319.264	38
321.241	0
321.279	11
323.247	0
323.294	1
325.274	0
329.283	0
331.265	0
331.289	0
333.243	0
333.278	0
335.258	3
336.221	0
337.237	0
337.274	56
339.289	158
340.294	0
341.305	20
343.339	0
345.278	1
345.309	0
347.291	0
351.251	0
351.295	0
353.282	0
353.309	0
357.297	0
359.296	0
359.331	0
361.271	0
361.342	0
363.259	0
363.293	0
365.26	0
365.273	0
365.314	0
367.313	0
367.336	0
371.345	0
373.35	0
375.366	0
377.268	1
379.274	0
383.35	0
387.364	0
389.383	0
391.282	0
393.292	0
393.309	0
395.331	0
397.346	0
401.336	0
401.382	0
403.379	0
403.407	0
405.288	0
405.336	0
405.375	0
407.318	0
411.36	0
413.381	0
415.375	0
415.393	0
417.369	0
417.408	0
419.303	0
419.35	0
419.383	0
429.366	0
429.408	0
431.389	0
433.37	0
433.399	0
439.351	0
441.385	0
443.397	0
445.408	0
447.422	0
449.362	0
461.361	0
461.425	0
463.369	0
463.393	0
477.386	0
491.407	0
503.41	0
505.422	1
507.452	1
509.473	2
525.463	3
527.482	18
529.485	2
529.507	2
533.445	0
543.474	2
545.486	9
545.508	2
545.52	0
549.495	1
563.509	1
564.511	3
565.5	1
565.523	1
573.486	27
575.503	56
576.502	1
577.52	57
578.511	1
578.527	1
579.531	1
583.523	0
587.499	3
589.518	4
590.511	0
591.513	2
591.541	1
597.617	1
597.647	0
599.5	642
599.932	0
600.509	4
600.57	0
601.375	0
601.398	1
601.516	974
602.168	1
602.521	18
602.546	115
602.76	28
602.927	4
602.959	1
603.119	11
603.326	1
603.344	0
603.407	1
603.53	999
604.165	1
604.372	1
604.552	41
604.602	1
604.782	3
605.13	1
605.545	63
608.402	0
610.708	0
615.53	2
617.509	2
617.531	1
617.55	4
619.529	3
627.535	103
629.549	20
629.572	2
631.562	1
671.581	0
671.614	0
673.529	0
673.558	0
673.611	0
675.544	0
675.57	0
685.579	0
687.533	0
687.565	0
687.619	0
689.58	0
699.579	0
699.626	0
699.649	0
701.565	0
701.632	0
703.591	0
713.642	0
713.668	0
715.587	0
715.661	0
717.588	0
727.668	0
729.577	0
729.617	0
731.616	0
739.629	0
743.597	0
743.669	0
745.627	0
753.633	0
753.673	0
755.679	0
757.604	0
757.632	0
757.669	0
757.696	0
759.658	0
767.666	0
771.623	0
771.649	0
771.674	0
771.697	0
771.724	0
773.732	0
781.692	0
785.639	0
785.675	0
785.696	0
785.727	0
799.663	0
799.698	0
799.714	0
799.741	0
809.701	0
813.7	0
827.728	0
847.74	0
847.785	0
864.788	0
864.834	0
865.69	0
865.761	38
865.827	0
866.788	0
880.971	0
881.006	0
881.054	0
883.465	0
883.608	0
883.77	177
884.737	0
884.756	0
884.782	1
884.814	0
897.929	0
897.978	0
898.019	0
899.631	0
899.846	0
899.88	0
900.621	0
900.796	114
901.768	0
901.808	4
901.848	0
901.991	0
902.331	0
903.237	0
