Mass spectrum: TG 50:5; LC-ESI-QTOF; MS2
Name: TG 50:5
Class:  TAG
Formula: C53H92O6
Exact mass: 825.313
SMILES: CCCCCCCCCCCCCC(=O)OCC(COC(=O)CCCCCCCCC\C=C/C=C\C=C/CC)OC(=O)CCCCCCCC\C=C/C=C\CCCCC
InChI: InChI=1S/C53H92O6/c1-4-7-10-13-16-19-22-24-26-28-31-34-37-40-43-46-52(55)58-49-50(48-57-51(54)45-42-39-36-33-30-21-18-15-12-9-6-3)59-53(56)47-44-41-38-35-32-29-27-25-23-20-17-14-11-8-5-2/h7,10,13,16-17,19-20,22-23,25,50H,4-6,8-9,11-12,14-15,18,21,24,26-49H2,1-3H3/b10-7-,16-13-,20-17-,22-19-,25-23-
Instrument: AB Sciex TripleTOF 5600+ system (Q-TOF) equipped with a DuoSpray ion source
Instrument type: LC-ESI-QTOF
Ms type: MS2
Ion mode: POSITIVE
Collision energy: 45V
Column name: Acquity UPLC Peptide BEH C18 column (50*2.1 mm; 1.7 um; 130A)(Waters Co.,Milford, MA, USA)
Retention time: 13.79976
Precursor type: [M+NH4]+
Precursor m/z: 842.7211
Intensity: 4422
m/z	relative intensity
79.055	19
81.07	48
93.071	21
95.086	44
107.085	30
109.102	35
121.102	28
123.115	17
133.098	28
135.114	25
137.134	17
149.133	17
163.146	26
173.13	26
175.146	17
186.996	19
211.199	25
237.221	30
243.205	21
245.225	17
261.221	98
263.237	55
268.994	76
283.231	10
285.243	39
292.956	10
299.234	9
311.255	29
315.233	7
317.229	8
317.25	32
319.252	8
319.268	15
333.239	19
335.26	14
337.273	57
339.294	16
350.998	23
432.977	8
433.0	39
467.407	26
493.419	48
495.44	65
495.454	26
496.429	21
496.445	14
496.468	19
497.433	26
497.458	24
515.003	32
521.452	42
523.448	21
543.421	19
543.448	32
545.411	18
545.435	206
545.454	504
547.469	999
549.486	29
569.451	33
571.468	461
573.488	139
573.525	19
575.491	17
575.516	14
577.505	16
577.539	14
597.46	108
597.484	528
599.481	34
599.508	93
599.532	19
601.493	12
601.531	17
625.509	30
679.035	3
713.555	5
729.595	5
745.621	8
807.678	28
825.673	53
825.697	105
825.742	25
842.653	10
842.719	263
