Mass spectrum: TG 54:5; LC-ESI-QTOF; MS2
Name: TG 54:5
Class:  TAG
Formula: C57H100O6
Exact mass: 881.4209999999999
SMILES: CCCCCCCCCCCCCCCC(=O)OCC(COC(=O)CCC\C=C/C\C=C/C\C=C/C\C=C/CCCCC)OC(=O)CCCCCCCCC\C=C/CCCCCC
InChI: InChI=1S/C57H100O6/c1-4-7-10-13-16-19-22-25-27-28-30-32-35-38-41-44-47-50-56(59)62-53-54(52-61-55(58)49-46-43-40-37-34-31-24-21-18-15-12-9-6-3)63-57(60)51-48-45-42-39-36-33-29-26-23-20-17-14-11-8-5-2/h16,19-20,23,25,27,30,32,38,41,54H,4-15,17-18,21-22,24,26,28-29,31,33-37,39-40,42-53H2,1-3H3/b19-16-,23-20-,27-25-,32-30-,41-38-
Instrument: AB Sciex TripleTOF 5600+ system (Q-TOF) equipped with a DuoSpray ion source
Instrument type: LC-ESI-QTOF
Ms type: MS2
Ion mode: POSITIVE
Collision energy: 45V
Column name: Acquity UPLC Peptide BEH C18 column (50*2.1 mm; 1.7 um; 130A)(Waters Co.,Milford, MA, USA)
Retention time: 14.4688
Precursor type: [M+NH4]+
Precursor m/z: 898.7842
Intensity: 12927
m/z	relative intensity
71.084	4
79.054	7
81.07	14
83.085	9
85.1	4
91.054	11
93.068	6
95.084	19
97.1	9
105.069	9
107.085	6
109.101	15
111.115	3
117.07	6
119.086	10
121.101	10
123.115	4
123.123	2
131.086	9
133.101	11
135.118	10
137.132	4
143.086	2
145.101	5
147.116	7
149.132	5
151.148	3
157.095	3
157.104	2
159.116	4
161.133	6
163.151	4
165.166	2
171.115	14
173.133	5
175.11	4
175.149	12
177.163	6
185.133	15
187.151	8
189.162	14
191.181	6
199.147	9
201.163	9
203.18	83
205.196	2
213.163	4
215.182	4
227.184	4
239.238	24
241.195	3
243.212	3
245.226	5
247.239	7
259.201	3
259.243	8
265.252	30
269.225	72
271.246	2
285.22	2
287.238	110
288.237	3
295.239	1
311.25	2
311.268	1
313.273	97
314.281	1
321.277	1
325.248	1
337.273	1
339.289	91
340.288	0
341.291	1
341.311	1
343.25	1
343.265	3
343.282	1
359.261	2
361.273	2
367.278	4
369.274	0
393.285	1
393.304	2
423.35	0
449.365	1
473.371	1
507.448	1
525.45	2
533.459	1
533.488	1
549.476	1
551.461	2
551.501	13
553.517	1
575.489	3
575.508	3
575.709	3
577.516	999
578.513	26
578.528	31
578.546	16
597.482	8
597.5	4
597.525	2
599.504	223
600.498	3
600.513	1
601.512	22
601.56	2
603.506	1
603.526	4
603.546	3
615.486	1
617.504	1
624.557	1
625.515	261
626.51	8
626.558	2
627.55	3
653.542	2
674.971	0
675.461	1
725.608	0
757.619	0
783.629	0
797.698	0
811.702	0
813.677	0
816.721	0
853.73	0
861.035	0
863.738	11
864.745	0
869.7	1
879.03	0
881.759	68
882.758	1
882.803	1
891.724	0
895.994	1
898.7	5
898.779	183
899.723	0
899.766	2
899.785	3
899.816	2
