Mass spectrum: BMP 40:7; LC-ESI-QTOF; MS2
Name: BMP 40:7
Class:  BMP
Formula: C46H77O10P
Exact mass: 821.088
SMILES: CCCCC\C=C/C\C=C/CCCCCCCC(=O)OC(CO)COP(O)(=O)OCC(CO)OC(=O)CCCCC\C=C/C\C=C/C\C=C/C\C=C/C\C=C/CC
InChI: InChI=1S/C46H77O10P/c1-3-5-7-9-11-13-15-17-19-20-21-22-24-26-28-30-32-34-36-38-46(50)56-44(40-48)42-54-57(51,52)53-41-43(39-47)55-45(49)37-35-33-31-29-27-25-23-18-16-14-12-10-8-6-4-2/h5,7,11-14,17-19,21-23,26,28,43-44,47-48H,3-4,6,8-10,15-16,20,24-25,27,29-42H2,1-2H3,(H,51,52)/b7-5-,13-11-,14-12-,19-17-,22-21-,23-18-,28-26-
Instrument: AB Sciex TripleTOF 5600+ system (Q-TOF) equipped with a DuoSpray ion source
Instrument type: LC-ESI-QTOF
Ms type: MS2
Ion mode: POSITIVE
Collision energy: 45V
Column name: Acquity UPLC Peptide BEH C18 column (50*2.1 mm; 1.7 um; 130A)(Waters Co.,Milford, MA, USA)
Retention time: 7.998363
Precursor type: [M+NH4]+
Precursor m/z: 838.5607
Intensity: 666
m/z	relative intensity
91.054	18
93.068	27
107.086	18
119.083	18
131.089	18
147.115	27
264.267	74
265.278	29
337.273	999
359.265	18
387.289	568
387.302	145
387.336	27
465.453	36
473.279	18
611.384	29
629.369	18
649.525	18
653.557	72
785.498	27
789.543	18
838.607	20
