Mass spectrum: TG 55:2; LC-ESI-QTOF; MS2
Name: TG 55:2
Class:  TAG
Formula: C58H108O6
Exact mass: 901.496
SMILES: CCCCCCCCCCCCCCCCCC(=O)OCC(COC(=O)CCCCCCC\C=C/CCCCCCCCC)OC(=O)CCCCCCCCC\C=C/CCCCCC
InChI: InChI=1S/C58H108O6/c1-4-7-10-13-16-19-22-25-28-31-33-36-39-42-45-48-51-57(60)63-54-55(64-58(61)52-49-46-43-40-37-34-30-27-24-21-18-15-12-9-6-3)53-62-56(59)50-47-44-41-38-35-32-29-26-23-20-17-14-11-8-5-2/h21,24,28,31,55H,4-20,22-23,25-27,29-30,32-54H2,1-3H3/b24-21-,31-28-
Instrument: AB Sciex TripleTOF 5600+ system (Q-TOF) equipped with a DuoSpray ion source
Instrument type: LC-ESI-QTOF
Ms type: MS2
Ion mode: POSITIVE
Collision energy: 45V
Column name: Acquity UPLC Peptide BEH C18 column (50*2.1 mm; 1.7 um; 130A)(Waters Co.,Milford, MA, USA)
Retention time: 15.38362
Precursor type: [M+NH4]+
Precursor m/z: 918.8531
Intensity: 1420
m/z	relative intensity
83.085	18
85.102	14
95.085	24
97.102	8
109.102	18
121.097	8
125.136	8
135.112	12
149.138	9
186.998	32
247.236	18
263.239	14
265.253	44
269.001	42
279.264	10
292.962	4
311.268	4
319.26	4
339.293	14
341.308	6
344.98	13
355.332	12
367.32	4
433.003	4
473.009	6
575.489	40
575.505	96
575.536	28
577.521	38
589.508	30
591.527	42
591.544	20
603.516	93
603.538	398
605.538	69
605.557	208
617.517	26
617.531	63
617.555	186
617.57	64
617.581	31
619.549	168
619.573	999
621.558	30
621.57	32
621.583	98
621.598	28
621.609	20
631.563	22
631.576	20
645.552	20
645.586	138
647.606	36
901.814	9
901.84	18
918.783	10
918.813	24
918.823	36
918.846	69
918.859	67
918.873	59
918.887	24
918.918	14
919.813	4
919.853	5
