Mass spectrum: TG 56:8; LC-ESI-QTOF; MS2
Name: TG 56:8
Class:  TAG
Formula: C59H98O6
Exact mass: 903.427
SMILES: CCCCCCCCCCCCCCCC(=O)OCC(COC(=O)CCC\C=C/C\C=C/C\C=C/C\C=C/CCCCC)OC(=O)CCC\C=C/C\C=C/C\C=C/C\C=C/CCCCC
InChI: InChI=1S/C59H98O6/c1-4-7-10-13-16-19-22-25-27-29-31-34-37-40-43-46-49-52-58(61)64-55-56(54-63-57(60)51-48-45-42-39-36-33-24-21-18-15-12-9-6-3)65-59(62)53-50-47-44-41-38-35-32-30-28-26-23-20-17-14-11-8-5-2/h16-17,19-20,25-28,31-32,34-35,40-41,43-44,56H,4-15,18,21-24,29-30,33,36-39,42,45-55H2,1-3H3/b19-16-,20-17-,27-25-,28-26-,34-31-,35-32-,43-40-,44-41-
Instrument: AB Sciex TripleTOF 5600+ system (Q-TOF) equipped with a DuoSpray ion source
Instrument type: LC-ESI-QTOF
Ms type: MS2
Ion mode: POSITIVE
Collision energy: 45V
Column name: Acquity UPLC Peptide BEH C18 column (50*2.1 mm; 1.7 um; 130A)(Waters Co.,Milford, MA, USA)
Retention time: 14.13545
Precursor type: [M+NH4]+
Precursor m/z: 920.7693
Intensity: 336
m/z	relative intensity
268.995	198
456.965	297
575.5	396
599.501	999
623.499	326
838.666	227
920.762	198
