Mass spectrum: BMP 38:5; LC-ESI-QTOF; MS2
Name: BMP 38:5
Class:  BMP
Formula: C44H77O10P
Exact mass: 797.0659999999999
SMILES: CCCCCCCC\C=C/CCCCCCCC(=O)OC(CO)COP(O)(=O)OCC(CO)OC(=O)CCCCCC\C=C/C\C=C/C\C=C/C\C=C/CC
InChI: InChI=1S/C44H77O10P/c1-3-5-7-9-11-13-15-17-19-20-22-24-26-28-30-32-34-36-44(48)54-42(38-46)40-52-55(49,50)51-39-41(37-45)53-43(47)35-33-31-29-27-25-23-21-18-16-14-12-10-8-6-4-2/h5,7,11,13,17-19,21-22,24,41-42,45-46H,3-4,6,8-10,12,14-16,20,23,25-40H2,1-2H3,(H,49,50)/b7-5-,13-11-,19-17-,21-18-,24-22-
Instrument: AB Sciex TripleTOF 5600+ system (Q-TOF) equipped with a DuoSpray ion source
Instrument type: LC-ESI-QTOF
Ms type: MS2
Ion mode: POSITIVE
Collision energy: 45V
Column name: Acquity UPLC Peptide BEH C18 column (50*2.1 mm; 1.7 um; 130A)(Waters Co.,Milford, MA, USA)
Retention time: 8.143545
Precursor type: [M+NH4]+
Precursor m/z: 814.5593
Intensity: 1357
m/z	relative intensity
81.07	13
95.087	16
119.088	16
157.097	13
184.075	22
189.164	11
199.149	13
203.179	22
264.263	13
269.223	25
287.239	30
313.274	57
337.282	8
338.294	8
339.285	999
361.272	575
387.287	16
420.885	5
449.256	8
454.842	5
462.196	5
526.824	5
599.481	27
599.506	47
599.522	35
625.505	33
625.524	13
629.561	5
666.482	6
728.459	5
735.51	27
761.525	16
814.468	16
814.514	7
