Mass spectrum: TG 58:10; LC-ESI-QTOF; MS2
Name: TG 58:10
Class:  TAG
Formula: C61H98O6
Exact mass: 927.449
SMILES: CCCCCC\C=C/CCCCCCCCCC(=O)OCC(COC(=O)CC\C=C/C\C=C/C\C=C/C\C=C/C\C=C/C\C=C/CC)OC(=O)CCCCCCCCC\C=C/C=C\C=C/CC
InChI: InChI=1S/C61H98O6/c1-4-7-10-13-16-19-22-25-28-29-30-31-34-36-39-42-45-48-51-54-60(63)66-57-58(67-61(64)55-52-49-46-43-40-37-33-27-24-21-18-15-12-9-6-3)56-65-59(62)53-50-47-44-41-38-35-32-26-23-20-17-14-11-8-5-2/h7,9-10,12,15-16,18-21,23-25,28,30-31,36,39,45,48,58H,4-6,8,11,13-14,17,22,26-27,29,32-35,37-38,40-44,46-47,49-57H2,1-3H3/b10-7-,12-9-,18-15-,19-16-,23-20-,24-21-,28-25-,31-30-,39-36-,48-45-
Instrument: AB Sciex TripleTOF 5600+ system (Q-TOF) equipped with a DuoSpray ion source
Instrument type: LC-ESI-QTOF
Ms type: MS2
Ion mode: POSITIVE
Collision energy: 45V
Column name: Acquity UPLC Peptide BEH C18 column (50*2.1 mm; 1.7 um; 130A)(Waters Co.,Milford, MA, USA)
Retention time: 13.96536
Precursor type: [M+NH4]+
Precursor m/z: 944.7657
Intensity: 4903
m/z	relative intensity
79.053	10
81.068	30
91.053	17
93.067	9
95.084	22
107.086	11
109.1	16
119.086	10
121.1	12
123.118	12
131.086	15
133.101	14
159.117	12
169.099	9
171.118	12
173.134	11
175.147	20
183.117	9
185.134	11
187.149	13
189.166	11
197.133	10
199.148	10
201.167	12
203.184	12
211.146	10
213.162	13
215.178	17
223.151	11
227.142	9
227.178	11
245.226	16
261.22	8
263.238	38
267.214	9
269.226	9
283.214	6
283.249	4
291.22	3
293.211	4
293.228	34
295.229	3
309.221	7
311.236	55
313.271	5
317.243	3
319.265	13
335.262	6
337.275	73
339.291	12
367.265	6
383.259	6
385.275	6
391.285	6
449.365	3
573.471	6
597.481	9
599.503	999
600.486	14
600.513	8
600.535	6
601.519	17
601.557	6
604.544	3
621.484	3
623.508	8
625.517	9
645.463	9
645.484	14
645.505	12
645.521	10
647.497	332
647.527	123
648.529	6
649.491	8
649.526	20
777.632	1
779.62	2
791.608	1
831.638	3
840.972	2
845.645	2
849.658	5
849.681	3
849.699	5
849.714	5
849.749	9
857.671	3
903.686	8
903.725	27
903.751	20
903.775	23
909.74	8
927.702	8
927.744	69
927.781	20
944.66	4
944.745	140
944.784	183
945.749	5
945.802	9
