Mass spectrum: TG 56:10; LC-ESI-QTOF; MS2
Name: TG 56:10
Class:  TAG
Formula: C59H94O6
Exact mass: 899.395
SMILES: CCCCC\C=C/C=C\CCCCCCCCC(=O)OCC(COC(=O)CCC\C=C/C\C=C/C\C=C/C\C=C/C\C=C/CC)OC(=O)CCCCCCCCC\C=C/C=C\C=C/CC
InChI: InChI=1S/C59H94O6/c1-4-7-10-13-16-19-22-25-28-29-32-34-37-40-43-46-49-52-58(61)64-55-56(65-59(62)53-50-47-44-41-38-35-31-27-24-21-18-15-12-9-6-3)54-63-57(60)51-48-45-42-39-36-33-30-26-23-20-17-14-11-8-5-2/h7,9-10,12,15-21,23-26,28,32,34,40,43,56H,4-6,8,11,13-14,22,27,29-31,33,35-39,41-42,44-55H2,1-3H3/b10-7-,12-9-,18-15-,19-16-,20-17-,24-21-,26-23-,28-25-,34-32-,43-40-
Instrument: AB Sciex TripleTOF 5600+ system (Q-TOF) equipped with a DuoSpray ion source
Instrument type: LC-ESI-QTOF
Ms type: MS2
Ion mode: POSITIVE
Collision energy: 45V
Column name: Acquity UPLC Peptide BEH C18 column (50*2.1 mm; 1.7 um; 130A)(Waters Co.,Milford, MA, USA)
Retention time: 13.71858
Precursor type: [M+NH4]+
Precursor m/z: 916.7403
Intensity: 839
m/z	relative intensity
79.054	65
81.068	66
95.084	65
121.101	56
133.092	46
149.134	46
159.12	46
175.145	99
187.149	65
201.162	122
243.199	46
245.228	49
261.22	49
263.242	69
267.213	141
277.209	60
279.229	37
281.196	18
283.203	18
285.225	87
287.237	18
311.254	18
313.271	18
317.245	49
319.262	28
335.265	94
337.269	151
337.285	85
339.291	29
359.269	37
361.3	18
521.453	94
543.43	114
571.463	122
571.5	56
589.5	42
591.44	49
597.476	999
597.502	810
598.49	65
600.503	46
603.528	65
603.559	75
615.499	93
617.462	95
617.524	131
619.47	287
619.492	180
621.462	105
621.491	268
621.504	75
621.514	85
645.504	60
791.625	18
845.635	534
845.673	970
845.703	294
845.735	75
846.642	40
881.721	30
899.533	18
899.691	49
899.716	93
899.761	37
916.521	19
916.555	46
916.637	46
916.709	123
916.722	86
916.753	400
916.815	65
