Mass spectrum: TG 46:2; LC-ESI-QTOF; MS2
Name: TG 46:2
Class:  TAG
Formula: C49H90O6
Exact mass: 775.253
SMILES: CCCCCCCCCCCCCCCC(=O)OC(COC(=O)CCCCCCCCCCC)COC(=O)CCCCCCCC\C=C/C=C\CCCCC
InChI: InChI=1S/C49H90O6/c1-4-7-10-13-16-19-21-23-24-26-27-30-33-36-39-42-48(51)54-45-46(44-53-47(50)41-38-35-32-29-18-15-12-9-6-3)55-49(52)43-40-37-34-31-28-25-22-20-17-14-11-8-5-2/h16,19,21,23,46H,4-15,17-18,20,22,24-45H2,1-3H3/b19-16-,23-21-
Instrument: AB Sciex TripleTOF 5600+ system (Q-TOF) equipped with a DuoSpray ion source
Instrument type: LC-ESI-QTOF
Ms type: MS2
Ion mode: POSITIVE
Collision energy: 45V
Column name: Acquity UPLC Peptide BEH C18 column (50*2.1 mm; 1.7 um; 130A)(Waters Co.,Milford, MA, USA)
Retention time: 13.87839
Precursor type: [M+NH4]+
Precursor m/z: 792.7048
Intensity: 47120
m/z	relative intensity
71.085	15
79.054	9
81.069	48
83.085	28
85.1	18
91.055	3
93.07	14
95.085	63
97.1	20
99.081	3
99.117	4
107.085	11
109.1	43
111.081	3
111.115	15
119.09	2
121.099	25
123.115	20
133.1	2
135.116	21
137.133	9
139.11	2
147.117	4
149.133	12
151.152	3
153.125	3
155.141	2
161.129	3
163.148	9
165.163	5
175.146	8
177.161	3
183.174	25
189.166	4
191.177	5
193.194	4
209.187	11
209.201	2
211.206	52
219.21	19
221.225	3
237.218	51
239.235	18
245.227	18
247.239	5
257.211	8
263.236	44
265.253	17
283.229	2
285.242	14
293.248	1
311.256	12
311.274	1
313.271	7
313.288	2
319.254	4
319.266	4
321.283	1
335.26	0
337.269	3
339.28	2
339.295	3
445.392	0
447.422	0
465.378	2
465.406	1
473.428	2
491.413	11
493.426	345
493.895	1
495.44	460
495.495	2
517.833	2
519.441	537
519.815	2
519.839	2
521.456	999
522.46	1
523.467	2
545.759	2
547.182	1
547.472	921
549.485	253
551.503	1
573.72	3
575.503	493
577.517	13
577.554	1
603.515	23
603.533	64
603.557	16
631.569	3
757.645	1
757.682	1
775.632	2
775.681	7
791.61	0
792.479	0
792.654	2
792.702	51
792.733	18
792.768	2
