Mass spectrum: TG 58:5; LC-ESI-QTOF; MS2
Name: TG 58:5
Class:  TAG
Formula: C61H108O6
Exact mass: 937.529
SMILES: CCCCCCCCCC\C=C/CCCCCCCCCC(=O)OCC(COC(=O)CCCCCCCC\C=C/C=C\CCCCC)OC(=O)CCCCCCCC\C=C/C=C\CCCCC
InChI: InChI=1S/C61H108O6/c1-4-7-10-13-16-19-22-25-28-29-30-31-34-36-39-42-45-48-51-54-60(63)66-57-58(67-61(64)55-52-49-46-43-40-37-33-27-24-21-18-15-12-9-6-3)56-65-59(62)53-50-47-44-41-38-35-32-26-23-20-17-14-11-8-5-2/h17-18,20-21,23-24,26-27,29-30,58H,4-16,19,22,25,28,31-57H2,1-3H3/b20-17-,21-18-,26-23-,27-24-,30-29-
Instrument: AB Sciex TripleTOF 5600+ system (Q-TOF) equipped with a DuoSpray ion source
Instrument type: LC-ESI-QTOF
Ms type: MS2
Ion mode: POSITIVE
Collision energy: 45V
Column name: Acquity UPLC Peptide BEH C18 column (50*2.1 mm; 1.7 um; 130A)(Waters Co.,Milford, MA, USA)
Retention time: 14.98372
Precursor type: [M+NH4]+
Precursor m/z: 954.8467
Intensity: 14729
m/z	relative intensity
79.053	5
81.069	17
83.085	5
91.052	3
93.07	5
95.085	18
97.101	6
107.084	2
109.101	13
111.115	3
119.087	2
121.099	6
123.116	9
131.084	2
133.099	3
135.115	7
137.134	3
147.118	4
149.133	6
151.147	3
161.13	6
163.147	6
165.165	3
173.129	2
175.147	6
177.164	5
189.164	4
201.165	2
233.228	2
243.208	4
245.226	15
247.239	2
261.221	13
263.237	48
265.246	7
265.26	3
271.24	2
289.239	2
289.254	5
291.266	3
293.282	4
303.303	4
317.245	4
317.292	1
319.262	8
319.307	1
321.312	24
335.255	2
337.273	18
339.289	8
345.275	2
365.305	1
367.316	4
375.318	1
377.327	1
377.351	1
395.339	7
395.358	15
525.461	4
543.478	3
573.482	3
575.489	2
577.532	1
583.541	2
597.612	2
599.502	553
600.506	5
601.485	3
601.51	28
601.529	24
603.528	10
603.547	7
605.556	2
606.556	1
607.566	3
617.503	2
621.484	3
623.474	2
623.493	4
623.513	6
627.535	115
628.535	2
629.523	13
629.554	71
631.561	58
633.571	1
634.579	4
635.57	3
649.508	2
651.508	3
651.525	6
651.549	5
653.53	9
653.555	8
653.582	2
655.564	116
657.578	999
658.579	8
658.597	4
659.592	61
671.597	1
673.532	1
673.569	1
675.598	1
677.534	0
680.558	0
681.57	2
681.59	3
683.571	1
683.594	2
683.631	1
685.61	1
713.562	0
715.588	0
729.58	0
741.595	1
755.592	0
767.694	0
783.666	0
811.671	1
811.724	1
825.699	2
839.692	1
839.758	1
853.693	0
853.774	0
867.753	0
869.746	1
869.79	1
870.779	0
871.742	0
871.796	0
872.758	6
872.786	6
872.806	1
896.748	1
896.778	1
919.765	1
919.797	9
919.838	6
919.864	2
933.703	1
933.785	241
934.752	1
934.782	1
934.821	2
934.886	0
937.818	151
937.856	29
937.972	0
938.816	3
938.851	2
954.716	1
954.841	257
955.813	1
955.847	4
955.869	2
