Mass spectrum: TG 60:12; LC-ESI-QTOF; MS2
Name: TG 60:12
Class:  TAG
Formula: C63H98O6
Exact mass: 951.471
SMILES: CCCCC\C=C/C\C=C/C\C=C/C\C=C/CCCC(=O)OCC(COC(=O)CCC\C=C/C\C=C/C\C=C/C\C=C/CCCCC)OC(=O)CCC\C=C/C\C=C/C\C=C/C\C=C/CCCCC
InChI: InChI=1S/C63H98O6/c1-4-7-10-13-16-19-22-25-28-31-34-37-40-43-46-49-52-55-61(64)67-58-60(69-63(66)57-54-51-48-45-42-39-36-33-30-27-24-21-18-15-12-9-6-3)59-68-62(65)56-53-50-47-44-41-38-35-32-29-26-23-20-17-14-11-8-5-2/h16-21,25-30,34-39,43-48,60H,4-15,22-24,31-33,40-42,49-59H2,1-3H3/b19-16-,20-17-,21-18-,28-25-,29-26-,30-27-,37-34-,38-35-,39-36-,46-43-,47-44-,48-45-
Instrument: AB Sciex TripleTOF 5600+ system (Q-TOF) equipped with a DuoSpray ion source
Instrument type: LC-ESI-QTOF
Ms type: MS2
Ion mode: POSITIVE
Collision energy: 45V
Column name: Acquity UPLC Peptide BEH C18 column (50*2.1 mm; 1.7 um; 130A)(Waters Co.,Milford, MA, USA)
Retention time: 13.93847
Precursor type: [M+NH4]+
Precursor m/z: 968.7675
Intensity: 1845
m/z	relative intensity
79.053	34
81.07	30
91.056	59
93.068	34
95.083	74
105.069	49
117.068	44
119.086	60
121.102	34
131.085	64
133.099	34
147.119	44
171.118	60
173.132	44
175.146	44
185.132	34
187.146	41
189.163	34
197.129	39
199.147	44
201.166	74
203.178	350
227.174	33
269.226	215
287.226	89
287.239	115
293.23	35
311.236	24
337.262	74
337.276	105
339.274	14
343.257	19
359.26	14
361.261	120
361.278	234
363.287	19
385.268	34
390.987	44
415.287	19
433.002	24
473.004	29
514.999	24
621.491	14
623.492	289
623.517	274
625.53	9
637.027	9
643.471	9
645.496	32
646.361	10
647.48	758
647.505	999
648.515	24
649.507	24
663.481	14
665.502	14
671.501	109
719.005	21
722.956	9
740.982	9
749.966	11
801.023	19
823.656	59
823.684	49
849.683	11
886.675	44
886.704	44
886.729	24
899.717	21
911.695	64
911.736	74
933.723	24
951.71	44
951.755	70
968.674	34
968.732	251
968.767	414
968.792	245
969.763	14
