Mass spectrum: TG 50:1; LC-ESI-QTOF; MS2
Name: TG 50:1
Class:  TAG
Formula: C53H100O6
Exact mass: 833.377
SMILES: CCCCCCCCCCCCCCCC(=O)OCC(COC(=O)CCCCCCCCC\C=C/CCCCCC)OC(=O)CCCCCCCCCCCCCCC
InChI: InChI=1S/C53H100O6/c1-4-7-10-13-16-19-22-25-26-29-31-34-37-40-43-46-52(55)58-49-50(59-53(56)47-44-41-38-35-32-28-24-21-18-15-12-9-6-3)48-57-51(54)45-42-39-36-33-30-27-23-20-17-14-11-8-5-2/h19,22,50H,4-18,20-21,23-49H2,1-3H3/b22-19-
Instrument: AB Sciex TripleTOF 5600+ system (Q-TOF) equipped with a DuoSpray ion source
Instrument type: LC-ESI-QTOF
Ms type: MS2
Ion mode: POSITIVE
Collision energy: 45V
Column name: Acquity UPLC Peptide BEH C18 column (50*2.1 mm; 1.7 um; 130A)(Waters Co.,Milford, MA, USA)
Retention time: 14.7485
Precursor type: [M+NH4]+
Precursor m/z: 850.7848
Intensity: 584665
m/z	relative intensity
71.048	0
71.086	31
77.038	1
79.054	6
81.07	50
83.086	44
85.064	1
85.072	0
85.101	33
91.054	1
93.07	8
95.085	68
97.066	1
97.101	34
99.08	1
99.115	8
101.096	0
107.085	6
109.101	48
111.081	1
111.116	14
113.096	1
113.132	4
121.101	20
123.117	31
125.097	0
125.132	8
127.113	1
127.148	2
135.117	20
137.132	15
139.111	1
139.148	3
141.129	0
141.158	0
141.165	1
149.132	9
151.148	11
153.127	3
153.162	0
155.143	0
155.181	0
157.161	0
163.148	5
165.163	10
167.143	2
169.16	0
169.191	0
177.164	3
179.178	4
181.158	0
183.172	0
191.18	2
193.192	0
195.175	0
205.192	1
205.203	0
211.205	0
219.212	0
221.226	16
237.221	1
237.237	0
238.491	0
239.237	182
247.241	30
256.247	0
256.264	6
257.246	2
264.437	0
265.253	127
267.259	0
267.269	1
275.254	0
279.23	0
282.28	1
283.263	0
285.243	0
293.244	0
295.263	1
297.28	1
299.295	0
303.266	0
311.243	0
311.262	0
312.291	0
313.274	58
321.277	5
321.304	0
323.288	0
325.315	0
333.347	0
337.27	0
339.289	15
341.305	0
367.287	0
391.386	0
405.393	0
419.393	0
491.95	0
503.481	3
523.47	5
523.502	0
549.488	89
549.758	0
549.781	1
549.803	0
551.384	1
551.501	816
552.501	7
552.692	0
563.496	0
563.525	0
575.716	19
575.808	0
576.532	0
576.59	0
577.112	0
577.376	0
577.393	1
577.516	999
578.153	1
578.313	1
578.736	17
578.901	14
579.088	11
579.277	0
579.426	0
579.636	0
580.971	0
581.631	0
583.825	0
586.433	0
588.254	0
591.529	0
605.55	26
677.197	0
706.405	0
815.702	0
815.742	1
815.777	0
833.721	1
833.739	1
833.763	6
833.824	0
848.096	0
848.125	0
849.447	0
850.719	0
850.784	70
851.777	0
851.833	0
