Mass spectrum: TG 66:18; LC-ESI-QTOF; MS2
Name: TG 66:18
Class:  TAG
Formula: C69H98O6
Exact mass: 1023.5369999999999
SMILES: CC\C=C/C\C=C/C\C=C/C\C=C/C\C=C/C\C=C/CCC(=O)OCC(COC(=O)CC\C=C/C\C=C/C\C=C/C\C=C/C\C=C/C\C=C/CC)OC(=O)CC\C=C/C\C=C/C\C=C/C\C=C/C\C=C/C\C=C/CC
InChI: InChI=1S/C69H98O6/c1-4-7-10-13-16-19-22-25-28-31-34-37-40-43-46-49-52-55-58-61-67(70)73-64-66(75-69(72)63-60-57-54-51-48-45-42-39-36-33-30-27-24-21-18-15-12-9-6-3)65-74-68(71)62-59-56-53-50-47-44-41-38-35-32-29-26-23-20-17-14-11-8-5-2/h7-12,16-21,25-30,34-39,43-48,52-57,66H,4-6,13-15,22-24,31-33,40-42,49-51,58-65H2,1-3H3/b10-7-,11-8-,12-9-,19-16-,20-17-,21-18-,28-25-,29-26-,30-27-,37-34-,38-35-,39-36-,46-43-,47-44-,48-45-,55-52-,56-53-,57-54-
Instrument: AB Sciex TripleTOF 5600+ system (Q-TOF) equipped with a DuoSpray ion source
Instrument type: LC-ESI-QTOF
Ms type: MS2
Ion mode: POSITIVE
Collision energy: 45V
Column name: Acquity UPLC Peptide BEH C18 column (50*2.1 mm; 1.7 um; 130A)(Waters Co.,Milford, MA, USA)
Retention time: 13.75438
Precursor type: [M+NH4]+
Precursor m/z: 1040.768
Intensity: 12045
m/z	relative intensity
77.037	3
79.053	14
81.068	13
91.053	19
93.068	19
95.084	12
105.068	17
107.085	8
109.101	8
117.068	15
119.084	17
121.1	10
129.069	11
131.084	21
133.101	11
135.078	3
135.116	6
143.084	10
145.099	15
147.117	9
155.084	6
157.1	11
159.116	15
161.132	12
169.1	12
171.115	21
173.13	17
175.148	8
181.099	9
183.115	12
185.133	16
187.11	5
187.147	11
189.164	5
195.118	7
197.13	11
199.148	19
201.122	3
201.163	26
203.18	5
209.131	12
211.146	14
213.162	14
215.185	7
221.13	4
223.15	12
225.164	10
227.144	4
227.177	16
229.159	4
237.165	7
239.181	7
241.157	5
241.196	4
251.178	7
265.192	6
267.212	7
269.228	10
277.201	1
283.207	2
283.243	4
291.211	3
293.225	36
295.244	4
305.23	1
309.218	6
311.201	2
311.236	39
313.245	1
325.215	1
329.239	1
367.261	7
367.278	1
369.276	1
383.247	2
383.27	1
385.273	61
387.286	2
439.288	3
505.354	1
513.37	0
519.348	1
521.35	0
533.365	1
561.393	1
571.381	1
575.424	1
585.42	0
587.413	1
601.418	0
603.452	1
603.476	0
613.433	1
621.447	2
621.48	3
627.441	0
639.484	1
643.461	1
644.465	1
644.505	0
669.477	1
669.518	1
670.482	3
681.48	0
692.484	0
693.314	2
693.345	1
693.488	5
695.354	1
695.502	999
695.64	1
696.464	1
696.493	11
696.518	13
696.54	4
697.514	7
709.503	0
711.496	2
713.5	2
713.543	0
873.58	1
921.705	1
939.639	0
972.699	30
972.735	23
973.726	1
1005.711	2
1005.756	2
1023.715	27
1023.755	22
1023.793	5
1024.751	1
1040.691	2
1040.771	401
1041.732	2
1041.767	5
1041.798	4
