Mass spectrum: TG 51:2; LC-ESI-QTOF; MS2
Name: TG 51:2
Class:  TAG
Formula: C54H100O6
Exact mass: 845.3879999999999
SMILES: CCCCCCCCCCCCCCC(=O)OCC(COC(=O)CCCCCCCCC\C=C/CCCCCC)OC(=O)CCCCCCCCC\C=C/CCCCCC
InChI: InChI=1S/C54H100O6/c1-4-7-10-13-16-19-22-25-27-29-32-35-38-41-44-47-53(56)59-50-51(49-58-52(55)46-43-40-37-34-31-24-21-18-15-12-9-6-3)60-54(57)48-45-42-39-36-33-30-28-26-23-20-17-14-11-8-5-2/h19-20,22-23,51H,4-18,21,24-50H2,1-3H3/b22-19-,23-20-
Instrument: AB Sciex TripleTOF 5600+ system (Q-TOF) equipped with a DuoSpray ion source
Instrument type: LC-ESI-QTOF
Ms type: MS2
Ion mode: POSITIVE
Collision energy: 45V
Column name: Acquity UPLC Peptide BEH C18 column (50*2.1 mm; 1.7 um; 130A)(Waters Co.,Milford, MA, USA)
Retention time: 14.62213
Precursor type: [M+NH4]+
Precursor m/z: 862.7877
Intensity: 7842
m/z	relative intensity
71.091	14
81.075	33
83.091	29
85.107	13
93.074	11
95.082	9
95.091	44
97.108	21
107.092	7
109.109	36
111.114	6
111.124	10
121.111	22
123.12	13
135.123	21
137.141	11
149.138	8
163.155	8
165.174	7
225.229	10
233.245	8
237.237	12
239.235	10
239.251	17
239.262	21
247.257	13
251.243	10
251.261	21
263.235	6
263.252	9
265.246	16
265.268	50
265.282	25
279.26	2
279.293	5
282.297	4
299.258	3
311.26	5
313.253	5
313.28	5
313.298	13
313.312	4
319.288	4
321.304	4
325.252	2
325.284	4
325.314	3
327.29	5
327.327	6
339.28	5
339.316	10
339.333	4
535.472	6
535.538	5
537.457	8
537.481	27
537.505	19
537.539	7
547.482	9
547.509	13
549.438	11
549.472	48
549.526	160
549.56	16
549.582	5
551.498	27
551.523	9
561.491	17
561.531	30
563.435	13
563.489	118
563.52	508
563.554	999
564.506	8
564.537	6
565.487	15
565.502	27
565.512	20
565.529	66
565.559	133
565.583	51
575.448	16
575.471	17
575.516	96
575.55	299
577.445	9
577.466	22
577.56	817
578.583	5
587.713	5
589.45	17
589.471	13
589.504	45
589.562	885
590.547	7
590.578	10
591.472	8
591.485	12
591.537	104
591.576	173
591.603	70
603.481	15
603.509	33
603.556	89
603.58	191
603.61	45
605.584	4
617.515	6
617.554	19
617.576	20
617.605	18
617.63	10
619.58	5
827.759	5
827.843	2
836.75	8
836.833	3
845.699	2
845.736	6
845.777	6
845.819	12
845.856	5
862.666	3
862.702	9
862.747	34
862.77	54
862.806	36
862.838	54
862.866	48
862.908	9
863.725	2
863.852	3
