Mass spectrum: TG 58:5; LC-ESI-QTOF; MS2
Name: TG 58:5
Class:  TAG
Formula: C61H108O6
Exact mass: 937.529
SMILES: CCCCCCCCCC\C=C/CCCCCCCCCC(=O)OCC(COC(=O)CCCCCCCC\C=C/C=C\CCCCC)OC(=O)CCCCCCCC\C=C/C=C\CCCCC
InChI: InChI=1S/C61H108O6/c1-4-7-10-13-16-19-22-25-28-29-30-31-34-36-39-42-45-48-51-54-60(63)66-57-58(67-61(64)55-52-49-46-43-40-37-33-27-24-21-18-15-12-9-6-3)56-65-59(62)53-50-47-44-41-38-35-32-26-23-20-17-14-11-8-5-2/h17-18,20-21,23-24,26-27,29-30,58H,4-16,19,22,25,28,31-57H2,1-3H3/b20-17-,21-18-,26-23-,27-24-,30-29-
Instrument: AB Sciex TripleTOF 5600+ system (Q-TOF) equipped with a DuoSpray ion source
Instrument type: LC-ESI-QTOF
Ms type: MS2
Ion mode: POSITIVE
Collision energy: 45V
Column name: Acquity UPLC Peptide BEH C18 column (50*2.1 mm; 1.7 um; 130A)(Waters Co.,Milford, MA, USA)
Retention time: 14.99173
Precursor type: [M+NH4]+
Precursor m/z: 954.8486
Intensity: 1289
m/z	relative intensity
81.07	18
95.086	27
109.102	27
111.116	13
135.117	13
149.132	17
163.144	17
245.222	22
261.222	24
263.238	62
269.0	17
292.957	10
293.281	10
317.246	10
319.255	35
321.319	34
367.323	11
390.99	14
395.352	25
472.985	10
565.518	28
592.549	28
599.46	24
599.48	99
599.499	527
599.532	45
601.512	55
601.538	17
603.534	18
627.529	70
627.549	77
629.552	94
631.55	17
631.588	24
655.56	91
655.58	77
657.564	326
657.583	999
657.614	110
659.596	49
659.619	20
681.606	6
683.6	6
685.449	6
702.95	7
841.01	14
843.725	62
843.737	45
843.755	87
843.789	24
865.732	6
865.803	11
869.774	20
872.726	25
872.76	52
872.776	24
872.822	10
896.772	24
919.803	28
925.722	48
925.763	105
934.806	11
937.753	13
937.82	168
954.788	27
954.832	220
954.86	73
954.897	52
