Mass spectrum: DG 20:0; LC-ESI-QTOF; MS2
Name: DG 20:0
Class:  DAG
Formula: C23H44O5
Exact mass: 400.6
SMILES: CCCCCCCCCCCCCCCC(=O)OC(CO)COC(=O)CCC
InChI: InChI=1S/C23H44O5/c1-3-5-6-7-8-9-10-11-12-13-14-15-16-18-23(26)28-21(19-24)20-27-22(25)17-4-2/h21,24H,3-20H2,1-2H3
Instrument: AB Sciex TripleTOF 5600+ system (Q-TOF) equipped with a DuoSpray ion source
Instrument type: LC-ESI-QTOF
Ms type: MS2
Ion mode: POSITIVE
Collision energy: 45V
Column name: Acquity UPLC Peptide BEH C18 column (50*2.1 mm; 1.7 um; 130A)(Waters Co.,Milford, MA, USA)
Retention time: 7.5595
Precursor type: [M+NH4]+
Precursor m/z: 418.3551
Intensity: 730
m/z	relative intensity
71.046	272
71.081	209
81.069	181
85.104	272
89.059	209
145.088	918
313.274	754
383.31	999
