Mass spectrum: TG 48:3; LC-ESI-QTOF; MS2
Name: TG 48:3
Class:  TAG
Formula: C51H92O6
Exact mass: 801.2909999999999
SMILES: CCCCCCCCCCCCCC(=O)OCC(COC(=O)CCCCCCCC\C=C/C=C\CCCCC)OC(=O)CCCCC\C=C/CCCCCCCC
InChI: InChI=1S/C51H92O6/c1-4-7-10-13-16-19-22-24-25-27-29-32-35-38-41-44-50(53)56-47-48(46-55-49(52)43-40-37-34-31-28-21-18-15-12-9-6-3)57-51(54)45-42-39-36-33-30-26-23-20-17-14-11-8-5-2/h16,19,22,24,26,30,48H,4-15,17-18,20-21,23,25,27-29,31-47H2,1-3H3/b19-16-,24-22-,30-26-
Instrument: AB Sciex TripleTOF 5600+ system (Q-TOF) equipped with a DuoSpray ion source
Instrument type: LC-ESI-QTOF
Ms type: MS2
Ion mode: POSITIVE
Collision energy: 45V
Column name: Acquity UPLC Peptide BEH C18 column (50*2.1 mm; 1.7 um; 130A)(Waters Co.,Milford, MA, USA)
Retention time: 13.91638
Precursor type: [M+NH4]+
Precursor m/z: 818.7227
Intensity: 24500
m/z	relative intensity
71.085	9
79.053	8
81.069	39
83.085	19
85.065	2
85.101	9
91.053	4
93.069	11
95.084	44
97.063	3
97.101	16
99.081	3
107.084	10
109.1	33
111.08	4
111.117	9
119.093	1
121.1	21
123.116	20
125.095	1
127.112	2
133.099	5
135.116	21
137.131	13
137.14	2
139.11	3
147.117	5
149.131	8
151.148	5
153.126	2
155.144	2
161.132	6
163.147	9
165.164	4
167.145	2
175.149	9
177.163	4
183.173	9
189.165	5
191.177	4
193.195	3
203.178	2
207.175	3
209.189	9
211.206	39
219.21	19
235.202	1
237.221	52
239.237	7
245.227	23
247.24	3
257.211	4
261.223	2
263.236	63
265.254	11
277.208	0
283.228	4
285.24	19
285.258	3
293.246	2
295.256	1
301.259	1
309.249	1
311.259	22
313.267	5
313.285	3
319.264	13
335.255	1
337.273	13
339.29	7
435.354	0
447.418	0
449.356	0
451.383	0
461.376	0
471.419	1
473.44	2
491.41	1
499.455	2
517.456	1
517.825	0
519.439	172
519.797	1
519.835	2
519.871	1
520.451	1
521.456	831
522.455	5
523.473	5
527.489	1
535.462	1
543.754	1
545.456	215
545.762	3
546.45	1
547.407	1
547.471	999
548.462	3
548.479	4
548.506	1
549.472	13
549.498	12
561.487	1
571.691	2
573.488	710
574.482	2
574.506	3
575.505	229
576.499	1
577.515	11
577.545	2
601.517	164
601.586	1
602.521	1
603.505	1
603.526	3
603.55	2
629.556	2
689.61	0
703.617	0
717.621	0
783.64	1
783.677	5
783.706	1
783.738	1
801.68	21
801.709	18
801.74	2
802.693	0
818.719	102
819.735	1
