Mass spectrum: TG 51:2; LC-ESI-QTOF; MS2
Name: TG 51:2
Class:  TAG
Formula: C54H100O6
Exact mass: 845.3879999999999
SMILES: CCCCCCCCCCCCCCCCCC(=O)OC(COC(=O)CCCCCCCCCCCCCC)COC(=O)CCCCCCCC\C=C/C=C\CCCCC
InChI: InChI=1S/C54H100O6/c1-4-7-10-13-16-19-22-25-27-29-32-35-38-41-44-47-53(56)59-50-51(49-58-52(55)46-43-40-37-34-31-24-21-18-15-12-9-6-3)60-54(57)48-45-42-39-36-33-30-28-26-23-20-17-14-11-8-5-2/h16,19,22,25,51H,4-15,17-18,20-21,23-24,26-50H2,1-3H3/b19-16-,25-22-
Instrument: AB Sciex TripleTOF 5600+ system (Q-TOF) equipped with a DuoSpray ion source
Instrument type: LC-ESI-QTOF
Ms type: MS2
Ion mode: POSITIVE
Collision energy: 45V
Column name: Acquity UPLC Peptide BEH C18 column (50*2.1 mm; 1.7 um; 130A)(Waters Co.,Milford, MA, USA)
Retention time: 14.62342
Precursor type: [M+NH4]+
Precursor m/z: 862.7868
Intensity: 16751
m/z	relative intensity
71.085	15
79.055	6
81.07	35
83.086	23
85.102	9
95.086	46
97.1	19
109.099	23
111.117	9
121.1	17
123.117	17
135.118	14
137.132	10
163.151	5
177.163	5
179.18	5
225.218	7
225.23	5
233.224	6
237.223	7
239.237	36
245.225	16
247.244	15
251.237	22
253.254	11
263.235	43
265.253	36
279.266	2
283.243	1
299.263	5
301.256	1
303.278	1
311.258	1
313.273	23
319.265	14
321.286	2
325.268	2
327.29	10
335.256	1
337.271	4
339.288	14
341.3	3
535.471	3
537.486	2
547.469	7
547.483	4
547.496	3
549.489	62
551.504	12
561.487	145
561.747	2
563.504	809
563.585	2
564.499	2
565.519	561
573.703	2
575.503	555
576.481	2
577.52	496
579.532	4
587.665	4
587.702	2
589.519	999
590.515	4
591.534	146
603.535	253
605.543	4
617.531	6
617.557	18
617.588	4
685.405	4
685.424	8
685.45	10
827.753	4
845.718	2
845.749	6
845.775	8
856.722	0
860.051	1
862.725	6
862.76	45
862.793	136
863.771	0
