Mass spectrum: TG 52:7; LC-ESI-QTOF; MS2
Name: TG 52:7
Class:  TAG
Formula: C55H92O6
Exact mass: 849.3349999999999
SMILES: CCCCCCCC\C=C/CCCCCC(=O)OCC(COC(=O)CCCCCCC\C=C/C=C\C=C/C=C\CC)OC(=O)CCCCCCCC\C=C/C=C\CCCCC
InChI: InChI=1S/C55H92O6/c1-4-7-10-13-16-19-22-25-27-30-33-36-39-42-45-48-54(57)60-51-52(50-59-53(56)47-44-41-38-35-32-29-24-21-18-15-12-9-6-3)61-55(58)49-46-43-40-37-34-31-28-26-23-20-17-14-11-8-5-2/h7,10,13,16-17,19-20,22-23,25-27,29,32,52H,4-6,8-9,11-12,14-15,18,21,24,28,30-31,33-51H2,1-3H3/b10-7-,16-13-,20-17-,22-19-,26-23-,27-25-,32-29-
Instrument: AB Sciex TripleTOF 5600+ system (Q-TOF) equipped with a DuoSpray ion source
Instrument type: LC-ESI-QTOF
Ms type: MS2
Ion mode: POSITIVE
Collision energy: 45V
Column name: Acquity UPLC Peptide BEH C18 column (50*2.1 mm; 1.7 um; 130A)(Waters Co.,Milford, MA, USA)
Retention time: 13.77509
Precursor type: [M+NH4]+
Precursor m/z: 866.7221
Intensity: 2067
m/z	relative intensity
81.065	16
81.071	18
91.052	18
93.068	13
95.085	37
107.084	15
109.1	16
119.085	15
121.1	15
123.113	18
131.085	22
133.102	19
135.114	15
145.098	15
147.118	16
159.116	20
161.133	16
173.131	19
175.147	23
185.131	26
187.145	33
197.134	17
201.163	83
211.149	16
211.205	29
237.221	19
245.228	16
263.24	36
267.211	76
283.23	10
285.209	13
285.226	55
285.246	84
292.954	15
292.97	13
311.257	32
313.271	6
319.254	5
337.267	64
337.281	33
339.291	5
341.249	8
374.964	8
391.287	6
456.959	9
521.451	10
538.963	12
547.471	999
548.456	13
548.474	16
548.496	13
567.444	19
569.443	65
569.466	79
571.468	12
573.466	15
573.496	20
575.498	26
593.443	12
593.467	12
595.45	36
595.481	42
597.478	6
599.501	9
601.501	9
601.526	19
620.977	6
621.472	140
621.497	113
622.488	6
623.495	6
718.943	3
788.605	6
806.577	8
806.62	9
831.681	6
845.647	40
845.68	44
849.641	8
849.676	25
849.703	19
849.723	26
866.554	4
866.601	5
866.713	76
866.739	87
867.718	5
