Mass spectrum: TG 64:17; LC-ESI-QTOF; MS2
Name: TG 64:17
Class:  TAG
Formula: C67H96O6
Exact mass: 997.499
SMILES: CC\C=C/C\C=C/C\C=C/C\C=C/C\C=C/CCCC(=O)OCC(COC(=O)CC\C=C/C\C=C/C\C=C/C\C=C/C\C=C/C\C=C/CC)OC(=O)CC\C=C/C\C=C/C\C=C/C\C=C/C\C=C/C\C=C/CC
InChI: InChI=1S/C67H96O6/c1-4-7-10-13-16-19-22-25-28-31-33-36-39-42-45-48-51-54-57-60-66(69)72-63-64(62-71-65(68)59-56-53-50-47-44-41-38-35-30-27-24-21-18-15-12-9-6-3)73-67(70)61-58-55-52-49-46-43-40-37-34-32-29-26-23-20-17-14-11-8-5-2/h7-12,16-21,25-30,33-34,36-38,41-43,45-47,50-52,54-55,64H,4-6,13-15,22-24,31-32,35,39-40,44,48-49,53,56-63H2,1-3H3/b10-7-,11-8-,12-9-,19-16-,20-17-,21-18-,28-25-,29-26-,30-27-,36-33-,37-34-,41-38-,45-42-,46-43-,50-47-,54-51-,55-52-
Instrument: AB Sciex TripleTOF 5600+ system (Q-TOF) equipped with a DuoSpray ion source
Instrument type: LC-ESI-QTOF
Ms type: MS2
Ion mode: POSITIVE
Collision energy: 45V
Column name: Acquity UPLC Peptide BEH C18 column (50*2.1 mm; 1.7 um; 130A)(Waters Co.,Milford, MA, USA)
Retention time: 13.66098
Precursor type: [M+NH4]+
Precursor m/z: 1014.762
Intensity: 486
m/z	relative intensity
95.086	18
147.12	16
159.117	16
171.116	16
175.149	16
185.136	16
187.147	24
201.165	41
213.16	18
351.235	16
352.231	18
385.275	48
645.469	34
645.495	18
647.492	42
652.549	26
668.459	18
668.483	18
669.479	320
669.52	49
695.508	121
695.534	24
717.483	56
717.511	44
717.532	20
997.662	183
997.688	309
997.704	999
997.721	658
997.733	437
997.744	428
997.755	262
997.8	100
998.709	32
998.769	32
1014.672	98
1014.689	57
1014.699	57
1014.741	131
