Mass spectrum: TG 56:7; LC-ESI-QTOF; MS2
Name: TG 56:7
Class:  TAG
Formula: C59H100O6
Exact mass: 905.443
SMILES: CCCCCCCCCCCCCCCC(=O)OCC(COC(=O)CC\C=C/C\C=C/C\C=C/C\C=C/C\C=C/C\C=C/CC)OC(=O)CCCCCCCCC\C=C/CCCCCC
InChI: InChI=1S/C59H100O6/c1-4-7-10-13-16-19-22-25-27-28-29-30-32-34-37-40-43-46-49-52-58(61)64-55-56(54-63-57(60)51-48-45-42-39-36-33-24-21-18-15-12-9-6-3)65-59(62)53-50-47-44-41-38-35-31-26-23-20-17-14-11-8-5-2/h7,10,16,19-20,23,25,27,29-30,34,37,43,46,56H,4-6,8-9,11-15,17-18,21-22,24,26,28,31-33,35-36,38-42,44-45,47-55H2,1-3H3/b10-7-,19-16-,23-20-,27-25-,30-29-,37-34-,46-43-
Instrument: AB Sciex TripleTOF 5600+ system (Q-TOF) equipped with a DuoSpray ion source
Instrument type: LC-ESI-QTOF
Ms type: MS2
Ion mode: POSITIVE
Collision energy: 45V
Column name: Acquity UPLC Peptide BEH C18 column (50*2.1 mm; 1.7 um; 130A)(Waters Co.,Milford, MA, USA)
Retention time: 14.37095
Precursor type: [M+NH4]+
Precursor m/z: 922.7865
Intensity: 15340
m/z	relative intensity
71.085	5
79.052	4
81.07	15
83.085	12
85.1	6
91.054	7
93.069	7
95.081	8
95.087	14
97.101	8
105.07	6
107.085	7
109.101	14
111.119	3
117.069	4
119.084	6
121.102	8
123.113	6
123.122	4
129.069	4
131.082	4
135.115	9
143.086	5
145.105	4
147.117	5
149.131	4
157.104	7
159.116	10
161.134	6
163.149	4
167.085	4
169.103	9
171.116	9
173.129	8
175.147	9
181.1	6
185.134	8
187.151	6
195.121	5
197.135	4
199.149	10
201.127	4
201.163	8
209.132	8
211.148	10
213.163	8
215.183	6
223.148	12
225.163	5
227.141	4
227.18	15
229.158	4
239.178	4
239.235	28
247.242	12
251.172	4
265.253	27
269.229	9
283.21	2
283.243	6
291.23	1
293.226	56
295.247	1
309.228	3
311.235	61
313.272	30
313.289	7
321.272	1
327.227	1
339.289	37
341.305	2
367.254	4
367.286	7
383.26	2
385.267	2
393.299	3
435.36	1
531.462	1
541.423	1
553.429	1
557.445	1
575.485	4
575.505	4
575.715	2
577.517	999
577.698	1
587.503	3
589.519	6
599.503	1
601.495	1
601.531	2
621.489	7
623.503	197
639.5	1
641.516	2
647.468	1
649.518	243
651.521	2
651.541	4
783.656	0
795.664	1
801.686	0
804.727	0
809.637	0
823.68	1
836.712	0
839.714	0
840.716	4
854.687	0
869.786	0
887.74	4
905.634	0
905.734	27
905.769	28
919.918	0
922.505	2
922.72	3
922.78	218
922.821	27
