Mass spectrum: TG 48:0; LC-ESI-QTOF; MS2
Name: TG 48:0
Class:  TAG
Formula: C51H98O6
Exact mass: 807.3389999999999
SMILES: CCCCCCCCCCCCCCCC(=O)OCC(COC(=O)CCCCCCCCCCCCCCC)OC(=O)CCCCCCCCCCCCCCC
InChI: InChI=1S/C51H98O6/c1-4-7-10-13-16-19-22-25-28-31-34-37-40-43-49(52)55-46-48(57-51(54)45-42-39-36-33-30-27-24-21-18-15-12-9-6-3)47-56-50(53)44-41-38-35-32-29-26-23-20-17-14-11-8-5-2/h48H,4-47H2,1-3H3
Instrument: AB Sciex TripleTOF 5600+ system (Q-TOF) equipped with a DuoSpray ion source
Instrument type: LC-ESI-QTOF
Ms type: MS2
Ion mode: POSITIVE
Collision energy: 45V
Column name: Acquity UPLC Peptide BEH C18 column (50*2.1 mm; 1.7 um; 130A)(Waters Co.,Milford, MA, USA)
Retention time: 14.72132
Precursor type: [M+NH4]+
Precursor m/z: 824.7686
Intensity: 160480
m/z	relative intensity
71.085	23
79.054	0
80.83	0
81.069	23
83.086	22
85.064	0
85.101	23
93.069	0
95.085	41
97.1	14
99.081	0
99.117	5
109.101	26
111.117	5
113.133	3
123.117	17
125.132	5
127.149	1
135.116	0
137.133	9
139.148	2
141.164	1
151.148	4
155.177	0
165.164	4
169.194	0
179.179	2
211.205	1
221.226	12
238.493	0
239.238	130
256.264	5
257.249	2
267.265	0
275.258	0
285.252	0
295.251	0
295.265	0
297.275	1
297.294	0
299.298	0
313.275	24
341.305	0
523.473	25
537.473	0
537.493	0
538.476	0
538.508	0
549.728	0
549.755	1
549.784	11
549.823	0
550.453	0
550.515	0
550.605	0
550.994	0
551.155	0
551.211	0
551.289	0
551.36	0
551.384	1
551.502	999
552.081	0
552.499	4
552.562	0
552.688	1
552.746	0
553.017	0
553.421	0
555.339	0
558.405	0
560.45	0
565.538	0
579.533	21
693.544	0
822.173	0
822.247	0
824.595	0
824.646	0
824.768	57
825.219	0
825.786	0
