Mass spectrum: TG 48:5; LC-ESI-QTOF; MS2
Name: TG 48:5
Class:  TAG
Formula: C51H88O6
Exact mass: 797.2589999999999
SMILES: CCCCCCCCCCCC(=O)OCC(COC(=O)CCCCCCCCC\C=C/C=C\C=C/CC)OC(=O)CCCCCCCC\C=C/C=C\CCCCC
InChI: InChI=1S/C51H88O6/c1-4-7-10-13-16-19-21-23-25-27-29-32-35-38-41-44-50(53)56-47-48(46-55-49(52)43-40-37-34-31-18-15-12-9-6-3)57-51(54)45-42-39-36-33-30-28-26-24-22-20-17-14-11-8-5-2/h7,10,13,16-17,19-22,24,48H,4-6,8-9,11-12,14-15,18,23,25-47H2,1-3H3/b10-7-,16-13-,20-17-,21-19-,24-22-
Instrument: AB Sciex TripleTOF 5600+ system (Q-TOF) equipped with a DuoSpray ion source
Instrument type: LC-ESI-QTOF
Ms type: MS2
Ion mode: POSITIVE
Collision energy: 45V
Column name: Acquity UPLC Peptide BEH C18 column (50*2.1 mm; 1.7 um; 130A)(Waters Co.,Milford, MA, USA)
Retention time: 13.568
Precursor type: [M+NH4]+
Precursor m/z: 814.6895
Intensity: 7983
m/z	relative intensity
79.054	29
81.07	61
83.084	27
93.069	42
95.084	81
97.099	17
105.068	16
107.085	36
109.101	63
119.085	23
121.099	32
123.113	28
135.114	21
147.115	17
149.132	23
159.114	15
161.135	23
163.145	35
173.134	19
175.149	23
181.158	16
183.172	46
189.165	19
207.174	26
243.207	23
245.23	26
257.213	28
261.218	104
261.231	31
263.237	77
277.217	4
281.219	4
283.226	16
285.235	5
289.212	4
289.261	8
299.239	8
301.249	6
311.252	20
311.272	6
313.271	14
317.246	37
319.262	15
333.243	6
335.256	28
337.272	86
339.29	11
345.317	3
443.385	7
467.409	6
468.413	13
469.407	11
479.411	7
489.398	7
491.398	7
491.42	23
493.415	7
499.367	8
515.403	51
515.421	23
517.422	999
519.439	920
521.446	14
523.451	14
541.409	15
541.454	9
543.415	32
543.442	141
545.452	81
545.483	10
547.442	13
547.469	42
547.486	18
569.446	25
571.45	21
571.47	116
573.469	65
573.492	113
575.489	11
575.521	7
597.484	753
599.494	250
599.515	149
601.507	44
601.536	13
625.503	16
625.517	10
673.536	2
713.611	3
741.599	4
779.615	13
779.661	23
779.683	7
781.596	49
781.628	134
781.661	16
797.627	39
797.657	125
814.621	11
814.655	97
814.692	154
814.726	20
