Mass spectrum: TG 50:6; LC-ESI-QTOF; MS2
Name: TG 50:6
Class:  TAG
Formula: C53H90O6
Exact mass: 823.297
SMILES: CCCCCCCCCCCCCC(=O)OCC(COC(=O)CCC\C=C/C\C=C/C\C=C/C\C=C/C\C=C/CC)OC(=O)CCCCC\C=C/CCCCCCCC
InChI: InChI=1S/C53H90O6/c1-4-7-10-13-16-19-22-24-25-26-27-29-31-34-37-40-43-46-52(55)58-49-50(48-57-51(54)45-42-39-36-33-30-21-18-15-12-9-6-3)59-53(56)47-44-41-38-35-32-28-23-20-17-14-11-8-5-2/h7,10,16,19,24-25,27-29,32,34,37,50H,4-6,8-9,11-15,17-18,20-23,26,30-31,33,35-36,38-49H2,1-3H3/b10-7-,19-16-,25-24-,29-27-,32-28-,37-34-
Instrument: AB Sciex TripleTOF 5600+ system (Q-TOF) equipped with a DuoSpray ion source
Instrument type: LC-ESI-QTOF
Ms type: MS2
Ion mode: POSITIVE
Collision energy: 45V
Column name: Acquity UPLC Peptide BEH C18 column (50*2.1 mm; 1.7 um; 130A)(Waters Co.,Milford, MA, USA)
Retention time: 13.72609
Precursor type: [M+NH4]+
Precursor m/z: 840.7043
Intensity: 972
m/z	relative intensity
83.084	52
93.067	43
95.083	80
109.101	61
137.129	43
185.131	43
187.15	43
201.165	70
213.169	86
231.175	176
237.22	46
239.238	69
257.204	43
263.237	37
267.213	99
283.228	26
285.207	65
285.233	77
291.22	17
293.232	26
311.254	113
313.273	122
314.907	17
337.273	78
344.959	17
390.992	17
392.859	17
416.894	17
426.956	17
495.435	105
495.455	52
521.448	513
521.464	212
541.417	63
543.42	118
543.447	87
543.456	52
567.438	460
567.465	97
569.451	149
573.488	52
575.486	460
575.506	999
575.563	34
595.462	87
597.487	43
623.514	43
706.884	17
783.592	47
783.642	327
783.697	52
823.674	117
840.639	43
840.693	131
840.717	88
840.733	114
840.813	17
841.754	19
