Mass spectrum: TG 58:5; LC-ESI-QTOF; MS2
Name: TG 58:5
Class:  TAG
Formula: C61H108O6
Exact mass: 937.529
SMILES: CCCCCCCCCC\C=C/CCCCCCCCCC(=O)OCC(COC(=O)CCCCCCCC\C=C/C=C\CCCCC)OC(=O)CCCCCCCC\C=C/C=C\CCCCC
InChI: InChI=1S/C61H108O6/c1-4-7-10-13-16-19-22-25-28-29-30-31-34-36-39-42-45-48-51-54-60(63)66-57-58(67-61(64)55-52-49-46-43-40-37-33-27-24-21-18-15-12-9-6-3)56-65-59(62)53-50-47-44-41-38-35-32-26-23-20-17-14-11-8-5-2/h17-18,20-21,23-24,26-27,29-30,58H,4-16,19,22,25,28,31-57H2,1-3H3/b20-17-,21-18-,26-23-,27-24-,30-29-
Instrument: AB Sciex TripleTOF 5600+ system (Q-TOF) equipped with a DuoSpray ion source
Instrument type: LC-ESI-QTOF
Ms type: MS2
Ion mode: POSITIVE
Collision energy: 45V
Column name: Acquity UPLC Peptide BEH C18 column (50*2.1 mm; 1.7 um; 130A)(Waters Co.,Milford, MA, USA)
Retention time: 14.96542
Precursor type: [M+NH4]+
Precursor m/z: 954.8467
Intensity: 1589
m/z	relative intensity
81.071	19
93.074	8
95.089	27
97.102	9
107.087	9
109.103	11
121.1	11
123.126	19
133.104	11
135.116	10
161.136	8
173.136	12
175.149	15
177.17	10
189.166	8
201.168	8
245.223	14
245.241	9
247.235	10
261.228	12
263.223	8
263.237	38
263.249	19
265.266	14
289.257	12
291.267	10
293.286	14
303.316	7
313.269	7
317.279	12
319.265	12
319.308	6
321.313	18
321.335	9
337.255	7
337.286	14
339.295	29
345.29	9
347.299	7
367.324	11
373.315	10
393.339	8
395.361	15
599.489	291
599.522	291
599.55	58
601.511	76
601.534	80
601.558	50
603.515	36
603.546	65
605.556	14
606.556	17
607.576	19
625.527	21
627.512	50
627.54	198
627.559	70
627.583	34
629.554	193
629.594	35
630.578	17
631.567	71
631.599	40
632.54	18
633.584	17
652.538	17
653.531	25
654.559	18
655.528	25
655.559	174
655.58	120
655.593	79
655.609	56
655.638	12
657.56	346
657.594	999
657.637	42
658.607	14
659.587	15
681.575	8
683.596	17
741.645	4
853.77	11
869.737	5
869.808	15
870.777	15
871.765	4
872.726	8
872.757	35
872.786	12
872.804	22
872.842	6
919.769	11
919.822	25
935.762	81
935.802	559
935.828	275
935.852	126
935.867	57
935.889	20
936.84	11
937.783	43
937.821	132
937.862	78
937.903	24
954.795	33
954.835	135
954.874	139
954.907	63
