Mass spectrum: TG 56:2; LC-ESI-QTOF; MS2
Name: TG 56:2
Class:  TAG
Formula: C59H110O6
Exact mass: 915.523
SMILES: CCCCCCCCCCCCCCCC(=O)OCC(COC(=O)CCCCCCCCC\C=C/CCCCCCCCCC)OC(=O)CCCCCCCCC\C=C/CCCCCC
InChI: InChI=1S/C59H110O6/c1-4-7-10-13-16-19-22-25-27-28-29-30-32-34-37-40-43-46-49-52-58(61)64-55-56(54-63-57(60)51-48-45-42-39-36-33-24-21-18-15-12-9-6-3)65-59(62)53-50-47-44-41-38-35-31-26-23-20-17-14-11-8-5-2/h20,23,28-29,56H,4-19,21-22,24-27,30-55H2,1-3H3/b23-20-,29-28-
Instrument: AB Sciex TripleTOF 5600+ system (Q-TOF) equipped with a DuoSpray ion source
Instrument type: LC-ESI-QTOF
Ms type: MS2
Ion mode: POSITIVE
Collision energy: 45V
Column name: Acquity UPLC Peptide BEH C18 column (50*2.1 mm; 1.7 um; 130A)(Waters Co.,Milford, MA, USA)
Retention time: 15.63354
Precursor type: [M+NH4]+
Precursor m/z: 932.868
Intensity: 1309
m/z	relative intensity
81.068	8
83.086	10
95.083	16
95.09	6
97.102	14
109.098	16
111.115	5
121.099	7
123.113	7
135.115	5
177.164	6
239.235	6
247.237	14
265.249	17
265.265	11
267.265	11
275.287	8
293.276	18
293.288	14
295.298	6
303.306	4
313.285	3
321.316	13
339.289	14
341.302	9
349.313	5
367.309	8
367.326	6
369.339	6
395.355	3
549.484	12
549.505	7
575.507	19
577.511	302
577.541	71
577.59	7
578.524	6
599.496	11
603.508	55
603.535	163
604.551	6
605.55	724
606.535	19
606.563	8
607.566	16
627.502	8
627.526	23
627.546	14
629.527	9
629.565	18
631.534	80
631.561	444
631.582	98
632.565	22
632.599	6
633.578	999
634.556	7
634.593	45
635.563	7
635.607	15
655.582	9
659.552	17
659.594	405
659.64	11
660.607	6
661.595	11
661.625	11
673.601	3
687.62	4
736.856	2
752.877	2
908.93	5
911.732	9
911.807	769
911.867	54
912.798	19
912.836	7
915.818	10
915.846	10
915.884	6
932.826	88
932.854	104
932.888	79
932.923	14
933.853	9
933.907	5
