Mass spectrum: TG 47:1; LC-ESI-QTOF; MS2
Name: TG 47:1
Class:  TAG
Formula: C50H94O6
Exact mass: 791.2959999999999
SMILES: CCCCCCCCCCCCCCCC(=O)OC(COC(=O)CCCCCCCCCCCCC)COC(=O)CCCCC\C=C/CCCCCCCCC
InChI: InChI=1S/C50H94O6/c1-4-7-10-13-16-19-22-24-26-28-31-34-37-40-43-49(52)55-46-47(45-54-48(51)42-39-36-33-30-27-21-18-15-12-9-6-3)56-50(53)44-41-38-35-32-29-25-23-20-17-14-11-8-5-2/h26,28,47H,4-25,27,29-46H2,1-3H3/b28-26-
Instrument: AB Sciex TripleTOF 5600+ system (Q-TOF) equipped with a DuoSpray ion source
Instrument type: LC-ESI-QTOF
Ms type: MS2
Ion mode: POSITIVE
Collision energy: 45V
Column name: Acquity UPLC Peptide BEH C18 column (50*2.1 mm; 1.7 um; 130A)(Waters Co.,Milford, MA, USA)
Retention time: 14.24607
Precursor type: [M+NH4]+
Precursor m/z: 808.7354
Intensity: 2071
m/z	relative intensity
81.071	25
85.102	25
95.083	82
97.1	30
109.1	35
123.117	40
135.116	25
225.218	25
237.223	41
239.233	36
239.245	40
313.276	30
405.252	25
509.446	61
509.457	98
509.471	67
521.46	50
523.452	51
523.476	103
535.469	999
535.495	189
537.486	409
537.504	159
537.517	98
549.452	36
549.466	93
549.489	760
551.51	47
563.48	41
563.489	72
563.502	104
563.514	182
577.502	30
773.629	10
775.611	15
791.713	10
808.555	15
808.721	30
808.738	72
808.769	20
