Mass spectrum: TG 55:3; LC-ESI-QTOF; MS2
Name: TG 55:3
Class:  TAG
Formula: C58H106O6
Exact mass: 899.4799999999999
SMILES: CCCCCCCCC\C=C/CCCCCCCC(=O)OCC(COC(=O)CCCCCCCCC\C=C/CCCCCC)OC(=O)CCCCCCCCC\C=C/CCCCCC
InChI: InChI=1S/C58H106O6/c1-4-7-10-13-16-19-22-25-28-31-33-36-39-42-45-48-51-57(60)63-54-55(64-58(61)52-49-46-43-40-37-34-30-27-24-21-18-15-12-9-6-3)53-62-56(59)50-47-44-41-38-35-32-29-26-23-20-17-14-11-8-5-2/h20-21,23-24,28,31,55H,4-19,22,25-27,29-30,32-54H2,1-3H3/b23-20-,24-21-,31-28-
Instrument: AB Sciex TripleTOF 5600+ system (Q-TOF) equipped with a DuoSpray ion source
Instrument type: LC-ESI-QTOF
Ms type: MS2
Ion mode: POSITIVE
Collision energy: 45V
Column name: Acquity UPLC Peptide BEH C18 column (50*2.1 mm; 1.7 um; 130A)(Waters Co.,Milford, MA, USA)
Retention time: 15.0234
Precursor type: [M+NH4]+
Precursor m/z: 916.8311
Intensity: 1643
m/z	relative intensity
81.07	14
83.083	7
89.059	7
95.082	7
97.102	10
109.1	15
121.104	7
135.115	10
149.136	7
163.144	8
165.166	11
247.245	17
251.234	8
263.237	24
265.253	59
279.275	15
293.287	6
298.316	2
313.271	2
319.254	2
321.285	4
325.275	4
335.295	4
337.275	12
339.272	7
339.296	20
353.306	17
355.319	8
367.322	4
564.501	11
575.479	27
575.505	55
575.526	29
576.483	5
577.502	21
577.536	12
578.497	15
578.533	23
578.56	11
589.507	77
589.536	55
590.491	11
590.527	11
591.514	17
591.527	43
591.546	35
591.572	11
592.527	102
592.543	83
592.571	13
593.563	10
594.541	17
594.561	11
594.578	11
601.503	112
601.531	187
601.568	10
603.535	595
604.508	13
615.532	27
617.547	999
617.579	157
618.53	27
618.564	85
619.549	115
619.57	196
619.602	22
629.54	39
629.574	30
631.547	21
631.577	29
643.564	24
643.588	14
645.576	14
891.754	12
891.787	10
891.807	11
891.831	11
899.793	20
899.828	20
916.552	14
916.762	18
916.802	64
916.82	94
916.839	41
916.862	69
916.906	11
917.866	7
