Mass spectrum: TG 51:3; LC-ESI-QTOF; MS2
Name: TG 51:3
Class:  TAG
Formula: C54H98O6
Exact mass: 843.372
SMILES: CCCCCCCCCCCCCCC(=O)OCC(COC(=O)CCCCCCCC\C=C/C=C\CCCCC)OC(=O)CCCCCCCCC\C=C/CCCCCC
InChI: InChI=1S/C54H98O6/c1-4-7-10-13-16-19-22-25-27-29-32-35-38-41-44-47-53(56)59-50-51(49-58-52(55)46-43-40-37-34-31-24-21-18-15-12-9-6-3)60-54(57)48-45-42-39-36-33-30-28-26-23-20-17-14-11-8-5-2/h16,19-20,22-23,25,51H,4-15,17-18,21,24,26-50H2,1-3H3/b19-16-,23-20-,25-22-
Instrument: AB Sciex TripleTOF 5600+ system (Q-TOF) equipped with a DuoSpray ion source
Instrument type: LC-ESI-QTOF
Ms type: MS2
Ion mode: POSITIVE
Collision energy: 45V
Column name: Acquity UPLC Peptide BEH C18 column (50*2.1 mm; 1.7 um; 130A)(Waters Co.,Milford, MA, USA)
Retention time: 14.34371
Precursor type: [M+NH4]+
Precursor m/z: 860.7719
Intensity: 6886
m/z	relative intensity
79.055	4
81.071	22
83.085	10
85.1	5
95.088	18
97.103	5
109.101	12
121.103	7
123.118	7
135.121	8
149.132	5
161.134	4
163.146	6
175.155	4
225.23	4
231.209	5
237.219	7
239.225	4
239.243	9
245.232	9
247.239	5
251.243	9
263.239	21
263.251	7
265.242	4
265.255	11
277.21	1
279.241	1
299.261	6
311.262	2
313.273	8
313.285	3
319.268	6
325.252	1
325.275	5
327.291	1
337.277	10
339.292	11
341.303	1
368.968	1
549.472	50
549.5	41
561.458	31
561.471	36
561.48	52
561.494	95
561.508	29
561.518	21
563.484	52
563.506	299
563.526	61
563.536	37
563.546	20
571.438	9
571.472	50
571.492	9
571.5	11
573.476	14
573.487	12
573.497	13
573.51	24
575.503	350
575.536	61
577.505	43
577.534	57
587.506	202
587.529	43
587.539	22
587.55	14
589.492	10
589.525	38
589.542	12
597.478	42
597.506	16
599.482	22
599.504	39
599.523	15
599.534	9
601.511	120
601.544	52
603.54	22
615.543	9
625.512	10
801.7	6
825.723	3
843.736	14
843.774	4
843.788	2
851.034	2
851.078	4
853.647	2
853.726	999
853.782	71
854.696	2
854.727	15
860.722	8
860.75	13
860.778	62
860.818	9
