Mass spectrum: AC 20:5; LC-ESI-QTOF; MS2
Name: AC 20:5
Class:  AcylCarnitine
Formula: C27H44NO4
Exact mass: 446.652
SMILES: CC\C=C/C\C=C/C\C=C/C\C=C/C\C=C/CCCC(=O)OC(CC(O)=O)C[N+](C)(C)C
InChI: InChI=1S/C27H43NO4/c1-5-6-7-8-9-10-11-12-13-14-15-16-17-18-19-20-21-22-27(31)32-25(23-26(29)30)24-28(2,3)4/h6-7,9-10,12-13,15-16,18-19,25H,5,8,11,14,17,20-24H2,1-4H3/p+1/b7-6-,10-9-,13-12-,16-15-,19-18-
Instrument: AB Sciex TripleTOF 5600+ system (Q-TOF) equipped with a DuoSpray ion source
Instrument type: LC-ESI-QTOF
Ms type: MS2
Ion mode: POSITIVE
Collision energy: 45V
Column name: Acquity UPLC Peptide BEH C18 column (50*2.1 mm; 1.7 um; 130A)(Waters Co.,Milford, MA, USA)
Retention time: 5.353235
Precursor type: [M+H]+
Precursor m/z: 446.3262
Intensity: 1848
m/z	relative intensity
79.053	151
81.069	156
85.027	999
89.059	28
91.053	208
93.069	137
95.085	146
105.069	118
107.077	28
107.085	61
109.102	52
117.072	37
119.084	94
121.101	94
129.072	33
131.084	70
133.099	94
135.117	47
144.103	113
145.098	42
147.116	56
157.101	30
159.111	28
161.133	63
169.102	37
171.119	30
173.136	37
175.146	44
185.133	33
291.156	9
303.233	21
317.198	9
331.192	9
422.322	16
446.322	742
446.339	271
