Mass spectrum: ChE 16:0; LC-ESI-QTOF; MS2
Name: ChE 16:0
Class:  CE
Formula: C43H76O2
Exact mass: 625.079
SMILES: CCCCCCCCCCCCCCCC(=O)O[C@H]1CC[C@]2(C)[C@H]3CC[C@]4(C)[C@H](CC[C@H]4[C@@H]3CC=C2C1)[C@H](C)CCCC(C)C
InChI: InChI=1S/C43H76O2/c1-7-8-9-10-11-12-13-14-15-16-17-18-19-23-41(44)45-36-28-30-42(5)35(32-36)24-25-37-39-27-26-38(34(4)22-20-21-33(2)3)43(39,6)31-29-40(37)42/h24,33-34,36-40H,7-23,25-32H2,1-6H3/t34-,36+,37+,38-,39+,40+,42+,43-/m1/s1
Instrument: AB Sciex TripleTOF 5600+ system (Q-TOF) equipped with a DuoSpray ion source
Instrument type: LC-ESI-QTOF
Ms type: MS2
Ion mode: POSITIVE
Collision energy: 45V
Column name: Acquity UPLC Peptide BEH C18 column (50*2.1 mm; 1.7 um; 130A)(Waters Co.,Milford, MA, USA)
Retention time: 14.80733
Precursor type: [M+NH4]+
Precursor m/z: 642.6214
Intensity: 223
m/z	relative intensity
135.116	93
147.119	93
161.13	255
175.148	97
201.162	116
217.191	116
243.206	93
269.001	69
273.26	74
287.279	46
292.954	69
369.353	999
369.371	232
414.959	46
418.938	51
642.349	46
642.397	116
