Mass spectrum: TG 60:8; LC-ESI-QTOF; MS2
Name: TG 60:8
Class:  TAG
Formula: C63H106O6
Exact mass: 959.535
SMILES: CCCCCCCC\C=C/CCCCCCCCCC(=O)OC(COC(=O)CCCCCCCC\C=C/C=C\CCCCC)COC(=O)CCCCC\C=C/C\C=C/C\C=C/C\C=C/C\C=C/CC
InChI: InChI=1S/C63H106O6/c1-4-7-10-13-16-19-22-25-28-30-31-33-35-38-41-44-47-50-53-56-62(65)68-59-60(58-67-61(64)55-52-49-46-43-40-37-34-27-24-21-18-15-12-9-6-3)69-63(66)57-54-51-48-45-42-39-36-32-29-26-23-20-17-14-11-8-5-2/h7,10,16,18-19,21,24-29,31,33,38,41,60H,4-6,8-9,11-15,17,20,22-23,30,32,34-37,39-40,42-59H2,1-3H3/b10-7-,19-16-,21-18-,27-24-,28-25-,29-26-,33-31-,41-38-
Instrument: AB Sciex TripleTOF 5600+ system (Q-TOF) equipped with a DuoSpray ion source
Instrument type: LC-ESI-QTOF
Ms type: MS2
Ion mode: POSITIVE
Collision energy: 45V
Column name: Acquity UPLC Peptide BEH C18 column (50*2.1 mm; 1.7 um; 130A)(Waters Co.,Milford, MA, USA)
Retention time: 14.59367
Precursor type: [M+NH4]+
Precursor m/z: 976.8273
Intensity: 2071
m/z	relative intensity
81.069	44
91.052	28
95.083	56
97.098	28
107.085	24
109.1	24
119.083	30
131.082	24
133.101	36
159.118	28
161.131	44
163.144	29
173.13	44
175.143	32
187.142	26
189.159	28
199.138	36
201.148	24
201.17	40
203.179	25
211.149	40
213.159	37
215.173	28
263.231	32
293.277	16
295.235	56
295.26	16
311.234	16
313.235	56
313.252	147
319.271	20
321.251	16
337.265	40
337.286	28
339.272	52
341.282	42
365.297	18
367.303	36
367.322	69
369.275	50
385.274	16
575.487	24
575.51	24
576.484	25
598.476	90
598.515	41
600.509	56
601.491	36
601.517	94
601.544	48
603.504	56
603.534	48
603.556	32
605.516	24
617.547	25
623.477	29
623.525	44
624.478	48
624.518	36
627.526	32
629.518	326
629.553	928
630.548	48
649.486	252
649.513	336
649.538	143
651.491	52
651.538	60
675.513	24
677.435	12
677.501	32
677.523	131
677.556	90
677.6	20
678.563	12
679.536	565
679.567	168
679.589	192
681.57	17
695.586	13
697.533	20
697.597	12
879.722	52
879.764	48
880.677	99
880.695	154
880.73	999
880.761	902
880.782	343
881.738	41
894.707	24
894.733	32
894.76	40
894.814	28
907.756	24
929.755	40
929.78	48
929.81	25
941.803	24
959.734	32
959.771	126
959.809	114
959.833	77
959.852	44
962.793	29
976.749	61
976.78	135
976.819	286
976.842	89
976.865	134
