Mass spectrum: TG 55:2; LC-ESI-QTOF; MS2
Name: TG 55:2
Class:  TAG
Formula: C58H108O6
Exact mass: 901.496
SMILES: CCCCCCCCCCCCCCCCC(=O)OCC(COC(=O)CCCCCCCCC\C=C/CCCCCCCC)OC(=O)CCCCCCCCC\C=C/CCCCCC
InChI: InChI=1S/C58H108O6/c1-4-7-10-13-16-19-22-25-28-29-31-33-36-39-42-45-48-51-57(60)63-54-55(53-62-56(59)50-47-44-41-38-35-32-27-24-21-18-15-12-9-6-3)64-58(61)52-49-46-43-40-37-34-30-26-23-20-17-14-11-8-5-2/h20,23,25,28,55H,4-19,21-22,24,26-27,29-54H2,1-3H3/b23-20-,28-25-
Instrument: AB Sciex TripleTOF 5600+ system (Q-TOF) equipped with a DuoSpray ion source
Instrument type: LC-ESI-QTOF
Ms type: MS2
Ion mode: POSITIVE
Collision energy: 45V
Column name: Acquity UPLC Peptide BEH C18 column (50*2.1 mm; 1.7 um; 130A)(Waters Co.,Milford, MA, USA)
Retention time: 15.41737
Precursor type: [M+NH4]+
Precursor m/z: 918.8475
Intensity: 1655
m/z	relative intensity
81.07	42
83.083	15
95.081	19
97.101	12
109.104	20
123.117	12
186.995	77
247.239	11
263.235	26
265.253	62
268.998	113
307.292	15
339.29	11
341.295	7
344.989	30
350.998	23
355.326	31
383.348	7
390.993	11
426.986	16
433.003	81
508.998	42
549.471	30
575.474	34
575.502	133
577.5	54
577.517	105
577.537	66
589.526	34
591.526	172
591.552	126
603.531	586
603.56	94
605.54	109
605.555	141
617.53	129
617.557	160
619.549	483
619.57	999
621.57	62
621.586	85
621.605	34
631.56	74
631.586	46
633.582	24
645.566	82
645.583	199
645.614	54
647.59	50
659.595	32
883.772	7
901.847	26
918.742	33
918.787	149
918.817	125
918.84	164
918.876	145
919.822	11
