Mass spectrum: TG 51:4; LC-ESI-QTOF; MS2
Name: TG 51:4
Class:  TAG
Formula: C54H96O6
Exact mass: 841.356
SMILES: CCCCCCCCCCCCCCC(=O)OCC(COC(=O)CCCCCCCC\C=C/C=C\CCCCC)OC(=O)CCCCCCCC\C=C/C=C\CCCCC
InChI: InChI=1S/C54H96O6/c1-4-7-10-13-16-19-22-25-27-29-32-35-38-41-44-47-53(56)59-50-51(49-58-52(55)46-43-40-37-34-31-24-21-18-15-12-9-6-3)60-54(57)48-45-42-39-36-33-30-28-26-23-20-17-14-11-8-5-2/h16-17,19-20,22-23,25-26,51H,4-15,18,21,24,27-50H2,1-3H3/b19-16-,20-17-,25-22-,26-23-
Instrument: AB Sciex TripleTOF 5600+ system (Q-TOF) equipped with a DuoSpray ion source
Instrument type: LC-ESI-QTOF
Ms type: MS2
Ion mode: POSITIVE
Collision energy: 45V
Column name: Acquity UPLC Peptide BEH C18 column (50*2.1 mm; 1.7 um; 130A)(Waters Co.,Milford, MA, USA)
Retention time: 14.11341
Precursor type: [M+NH4]+
Precursor m/z: 858.7578
Intensity: 4142
m/z	relative intensity
79.053	8
81.069	19
83.085	12
91.053	6
93.069	8
95.082	14
95.09	13
97.103	7
109.1	20
111.119	6
121.101	10
123.113	8
123.121	8
135.115	13
137.133	14
149.133	8
161.133	9
163.148	8
175.143	8
189.166	6
219.214	6
225.225	11
237.222	16
245.224	21
251.234	12
261.219	15
263.237	61
295.271	1
299.258	13
311.246	9
311.26	13
313.269	4
317.243	3
319.261	9
325.28	9
335.26	2
337.267	12
337.28	17
339.287	14
387.352	1
401.346	1
419.334	1
431.385	1
525.463	4
533.458	5
535.471	32
535.502	5
538.488	3
539.483	4
543.48	5
547.458	5
547.479	6
549.485	5
550.487	3
557.46	4
559.471	147
559.508	7
559.721	4
561.486	999
562.483	12
562.504	6
563.498	28
563.527	8
571.463	8
571.492	5
573.486	434
574.483	7
575.475	6
575.502	46
577.518	5
585.467	7
585.483	13
585.507	6
587.499	356
587.525	78
588.518	5
589.523	5
591.489	4
599.504	347
600.523	4
601.495	12
601.52	68
601.562	3
603.53	13
603.565	3
615.545	4
729.612	3
743.63	1
773.674	2
799.691	3
800.701	5
823.685	3
823.719	9
832.715	3
832.757	3
841.675	3
841.72	65
858.728	84
858.762	74
858.814	4
859.739	2
859.786	2
