Mass spectrum: TG 50:5; LC-ESI-QTOF; MS2
Name: TG 50:5
Class:  TAG
Formula: C53H92O6
Exact mass: 825.313
SMILES: CCCCCCCCCCCCCC(=O)OCC(COC(=O)CCCCCCCCC\C=C/C=C\C=C/CC)OC(=O)CCCCCCCC\C=C/C=C\CCCCC
InChI: InChI=1S/C53H92O6/c1-4-7-10-13-16-19-22-24-26-28-31-34-37-40-43-46-52(55)58-49-50(48-57-51(54)45-42-39-36-33-30-21-18-15-12-9-6-3)59-53(56)47-44-41-38-35-32-29-27-25-23-20-17-14-11-8-5-2/h7,10,13,16-17,19-20,22-23,25,50H,4-6,8-9,11-12,14-15,18,21,24,26-49H2,1-3H3/b10-7-,16-13-,20-17-,22-19-,25-23-
Instrument: AB Sciex TripleTOF 5600+ system (Q-TOF) equipped with a DuoSpray ion source
Instrument type: LC-ESI-QTOF
Ms type: MS2
Ion mode: POSITIVE
Collision energy: 45V
Column name: Acquity UPLC Peptide BEH C18 column (50*2.1 mm; 1.7 um; 130A)(Waters Co.,Milford, MA, USA)
Retention time: 13.79453
Precursor type: [M+NH4]+
Precursor m/z: 842.7242
Intensity: 1011
m/z	relative intensity
79.055	25
81.071	50
83.086	26
93.069	44
95.084	75
107.086	24
109.101	36
121.098	34
123.113	29
123.121	24
161.135	34
163.148	24
175.145	39
186.988	76
186.998	126
203.18	29
211.202	49
226.986	85
243.205	35
245.233	24
261.217	158
263.234	71
263.25	40
268.997	545
283.223	19
285.244	55
287.233	39
292.965	24
308.994	16
313.277	19
317.248	62
319.266	19
337.265	45
339.279	24
351.002	62
390.992	29
432.989	112
433.009	163
467.011	14
473.003	34
515.006	152
519.442	39
521.452	97
523.465	24
543.431	53
545.454	999
547.455	389
547.471	540
547.491	226
549.487	24
569.44	29
569.477	24
571.447	30
571.479	122
573.489	85
575.504	31
597.016	24
597.461	138
597.485	622
597.513	163
599.479	50
599.51	157
601.524	55
625.513	60
679.017	11
713.591	9
741.65	9
755.623	9
794.963	11
807.663	19
807.707	45
825.668	76
825.692	91
825.728	45
842.349	14
842.657	58
842.681	76
842.712	178
842.752	121
843.006	11
