Mass spectrum: TG 47:0; LC-ESI-QTOF; MS2
Name: TG 47:0
Class:  TAG
Formula: C50H96O6
Exact mass: 793.312
SMILES: CCCCCCCCCCCCCCCC(=O)OCC(COC(=O)CCCCCCCCCCCCCC)OC(=O)CCCCCCCCCCCCCCC
InChI: InChI=1S/C50H96O6/c1-4-7-10-13-16-19-22-25-28-31-34-37-40-43-49(52)55-46-47(45-54-48(51)42-39-36-33-30-27-24-21-18-15-12-9-6-3)56-50(53)44-41-38-35-32-29-26-23-20-17-14-11-8-5-2/h47H,4-46H2,1-3H3
Instrument: AB Sciex TripleTOF 5600+ system (Q-TOF) equipped with a DuoSpray ion source
Instrument type: LC-ESI-QTOF
Ms type: MS2
Ion mode: POSITIVE
Collision energy: 45V
Column name: Acquity UPLC Peptide BEH C18 column (50*2.1 mm; 1.7 um; 130A)(Waters Co.,Milford, MA, USA)
Retention time: 14.57256
Precursor type: [M+NH4]+
Precursor m/z: 810.7552
Intensity: 2071
m/z	relative intensity
81.067	7
83.085	16
85.1	18
95.086	29
109.1	13
123.117	7
225.22	32
239.235	89
253.249	9
299.257	7
313.267	5
370.357	7
439.203	7
440.206	15
495.267	23
496.245	13
496.262	32
496.294	13
509.45	24
523.467	43
523.49	21
537.468	219
537.49	999
551.326	10
551.478	95
551.501	340
551.52	179
552.328	26
565.505	32
565.528	48
608.405	18
664.462	21
810.749	32
810.778	29
