Mass spectrum: ChE 18:3; LC-ESI-QTOF; MS2
Name: ChE 18:3
Class:  CE
Formula: C45H74O2
Exact mass: 647.085
SMILES: CC\C=C/C\C=C/C\C=C/CCCCCCCC(=O)O[C@H]1CC[C@]2(C)[C@H]3CC[C@]4(C)[C@H](CC[C@H]4[C@@H]3CC=C2C1)[C@H](C)CCCC(C)C
InChI: InChI=1S/C45H74O2/c1-7-8-9-10-11-12-13-14-15-16-17-18-19-20-21-25-43(46)47-38-30-32-44(5)37(34-38)26-27-39-41-29-28-40(36(4)24-22-23-35(2)3)45(41,6)33-31-42(39)44/h8-9,11-12,14-15,26,35-36,38-42H,7,10,13,16-25,27-34H2,1-6H3/b9-8-,12-11-,15-14-/t36-,38+,39+,40-,41+,42+,44+,45-/m1/s1
Instrument: AB Sciex TripleTOF 5600+ system (Q-TOF) equipped with a DuoSpray ion source
Instrument type: LC-ESI-QTOF
Ms type: MS2
Ion mode: POSITIVE
Collision energy: 45V
Column name: Acquity UPLC Peptide BEH C18 column (50*2.1 mm; 1.7 um; 130A)(Waters Co.,Milford, MA, USA)
Retention time: 14.27163
Precursor type: [M+NH4]+
Precursor m/z: 664.6011
Intensity: 8543
m/z	relative intensity
81.068	21
83.084	19
89.059	11
93.07	15
95.085	41
97.102	16
105.068	17
107.085	11
109.101	39
119.083	12
121.102	23
123.115	20
133.102	14
135.117	56
147.117	59
149.132	32
161.132	100
163.147	17
165.163	13
173.133	14
175.148	57
177.161	14
179.178	15
187.15	16
189.164	33
193.194	17
201.163	26
203.179	42
205.194	19
215.179	53
217.192	24
219.209	21
229.194	25
233.225	36
243.211	63
245.226	15
247.242	22
257.226	28
259.24	43
271.237	5
271.256	3
273.256	25
275.278	4
277.22	8
285.253	9
287.27	23
287.289	15
292.959	2
299.275	7
313.286	9
321.238	4
327.3	2
341.322	3
367.33	16
367.347	11
368.209	6
369.353	999
535.309	3
647.413	1
647.448	11
647.534	2
664.446	7
664.477	19
