Mass spectrum: TG 56:3; LC-ESI-QTOF; MS2
Name: TG 56:3
Class:  TAG
Formula: C59H108O6
Exact mass: 913.5070000000001
SMILES: CCCCCCCCCCCCCCCCCC(=O)OCC(COC(=O)CCCCCCCCC\C=C/CCCCCCCC)OC(=O)CCCCCCCC\C=C/C=C\CCCCC
InChI: InChI=1S/C59H108O6/c1-4-7-10-13-16-19-22-25-28-29-32-34-37-40-43-46-49-52-58(61)64-55-56(65-59(62)53-50-47-44-41-38-35-31-27-24-21-18-15-12-9-6-3)54-63-57(60)51-48-45-42-39-36-33-30-26-23-20-17-14-11-8-5-2/h18,21,24-25,27-28,56H,4-17,19-20,22-23,26,29-55H2,1-3H3/b21-18-,27-24-,28-25-
Instrument: AB Sciex TripleTOF 5600+ system (Q-TOF) equipped with a DuoSpray ion source
Instrument type: LC-ESI-QTOF
Ms type: MS2
Ion mode: POSITIVE
Collision energy: 45V
Column name: Acquity UPLC Peptide BEH C18 column (50*2.1 mm; 1.7 um; 130A)(Waters Co.,Milford, MA, USA)
Retention time: 15.21581
Precursor type: [M+NH4]+
Precursor m/z: 930.8521
Intensity: 7182
m/z	relative intensity
79.051	4
81.068	11
83.084	12
85.102	3
95.084	14
97.1	13
107.084	5
109.096	4
109.104	7
111.118	6
121.1	9
135.112	5
135.122	4
137.129	3
149.133	5
163.148	4
175.145	3
245.226	4
247.242	12
263.228	4
263.246	6
265.252	33
265.265	9
275.275	8
291.269	1
293.284	20
313.283	2
319.265	3
321.303	4
337.275	1
339.292	16
341.295	2
341.324	2
349.31	3
367.316	7
367.337	1
395.358	1
573.489	2
575.504	65
575.533	9
577.517	9
599.497	3
601.521	46
601.651	3
603.536	627
605.532	7
605.556	33
607.586	2
617.564	2
625.51	8
625.53	13
627.509	2
627.542	23
627.586	2
629.552	180
629.592	9
631.567	999
633.582	197
653.572	3
657.54	3
657.565	27
657.597	52
659.583	5
659.608	9
675.567	1
685.619	2
895.811	7
909.44	0
909.796	218
913.789	3
913.82	18
913.842	13
913.883	3
918.068	0
930.85	187
930.903	8
931.007	0
931.098	0
