Mass spectrum: TG 49:4; LC-ESI-QTOF; MS2
Name: TG 49:4
Class:  TAG
Formula: C52H92O6
Exact mass: 813.302
SMILES: CCCCCCCCCCCCC(=O)OCC(COC(=O)CCCCCCCC\C=C/C=C\CCCCC)OC(=O)CCCCCCCC\C=C/C=C\CCCCC
InChI: InChI=1S/C52H92O6/c1-4-7-10-13-16-19-22-24-26-28-30-33-36-39-42-45-51(54)57-48-49(47-56-50(53)44-41-38-35-32-21-18-15-12-9-6-3)58-52(55)46-43-40-37-34-31-29-27-25-23-20-17-14-11-8-5-2/h16-17,19-20,22-25,49H,4-15,18,21,26-48H2,1-3H3/b19-16-,20-17-,24-22-,25-23-
Instrument: AB Sciex TripleTOF 5600+ system (Q-TOF) equipped with a DuoSpray ion source
Instrument type: LC-ESI-QTOF
Ms type: MS2
Ion mode: POSITIVE
Collision energy: 45V
Column name: Acquity UPLC Peptide BEH C18 column (50*2.1 mm; 1.7 um; 130A)(Waters Co.,Milford, MA, USA)
Retention time: 13.8396
Precursor type: [M+NH4]+
Precursor m/z: 830.7208
Intensity: 831
m/z	relative intensity
81.07	37
83.086	24
109.098	15
123.119	46
135.121	18
203.175	37
221.19	74
226.987	27
239.241	18
263.237	41
268.998	18
292.952	9
311.261	9
313.273	80
337.271	61
400.955	9
465.389	9
467.407	15
467.449	10
489.393	37
493.409	27
493.442	37
495.432	56
515.402	55
517.416	37
521.452	75
531.436	46
533.442	161
533.458	71
533.47	99
535.471	28
543.445	43
545.443	27
549.484	29
557.445	51
557.466	80
559.454	37
559.483	46
571.461	56
573.485	29
575.494	279
575.517	160
577.524	69
587.507	32
599.505	84
747.642	9
748.607	13
757.632	9
769.224	13
771.629	589
771.651	999
771.684	183
813.693	39
830.482	9
830.668	33
830.723	75
830.754	27
