Mass spectrum: TG 52:6; LC-ESI-QTOF; MS2
Name: TG 52:6
Class:  TAG
Formula: C55H94O6
Exact mass: 851.3509999999999
SMILES: CCCCCCCCCCCCCCCC(=O)OCC(COC(=O)CCC\C=C/C\C=C/C\C=C/C\C=C/CCCCC)OC(=O)CC\C=C/C\C=C/CCCCCCCC
InChI: InChI=1S/C55H94O6/c1-4-7-10-13-16-19-22-25-26-27-28-31-33-36-39-42-45-48-54(57)60-51-52(61-55(58)49-46-43-40-37-34-30-24-21-18-15-12-9-6-3)50-59-53(56)47-44-41-38-35-32-29-23-20-17-14-11-8-5-2/h16,19,25-26,28,30-31,34,36,39-40,43,52H,4-15,17-18,20-24,27,29,32-33,35,37-38,41-42,44-51H2,1-3H3/b19-16-,26-25-,31-28-,34-30-,39-36-,43-40-
Instrument: AB Sciex TripleTOF 5600+ system (Q-TOF) equipped with a DuoSpray ion source
Instrument type: LC-ESI-QTOF
Ms type: MS2
Ion mode: POSITIVE
Collision energy: 45V
Column name: Acquity UPLC Peptide BEH C18 column (50*2.1 mm; 1.7 um; 130A)(Waters Co.,Milford, MA, USA)
Retention time: 13.94063
Precursor type: [M+NH4]+
Precursor m/z: 868.7384
Intensity: 4952
m/z	relative intensity
79.056	11
81.072	23
83.085	10
91.053	19
93.07	15
95.085	33
105.068	11
109.097	11
121.102	15
123.118	12
131.087	10
133.1	21
137.132	10
145.101	8
147.115	18
157.104	10
161.131	12
171.117	12
175.151	21
177.162	11
185.133	18
187.147	10
189.162	23
191.179	10
199.147	16
201.157	12
203.178	101
211.204	36
227.18	8
233.187	10
245.221	13
245.234	8
259.241	11
263.233	22
263.245	10
269.223	86
271.244	5
283.229	3
285.241	91
287.237	90
309.25	2
311.258	7
313.273	9
317.254	2
319.266	10
335.261	8
337.274	110
339.261	5
339.293	10
343.261	7
359.256	4
361.276	4
387.283	3
391.286	6
447.357	3
459.354	2
521.463	5
531.466	4
545.452	4
545.764	5
547.472	999
548.474	8
549.455	11
549.489	13
551.494	4
552.515	4
569.437	7
569.454	44
569.48	10
571.47	268
573.487	16
575.493	6
575.511	8
577.506	5
578.505	7
578.524	11
589.49	4
595.452	12
595.48	14
597.462	7
597.49	13
599.514	12
601.516	188
623.496	230
623.529	24
625.499	4
625.538	4
699.556	2
767.646	2
786.666	7
823.722	2
833.709	13
850.542	2
850.695	2
851.681	116
851.706	206
851.726	87
852.707	2
868.664	5
868.719	73
868.743	82
868.768	47
