Mass spectrum: TG 53:4; LC-ESI-QTOF; MS2
Name: TG 53:4
Class:  TAG
Formula: C56H100O6
Exact mass: 869.41
SMILES: CCCCCCCCCCCCCCCCC(=O)OCC(COC(=O)CCCCCCCC\C=C/C=C\CCCCC)OC(=O)CCCCCCCC\C=C/C=C\CCCCC
InChI: InChI=1S/C56H100O6/c1-4-7-10-13-16-19-22-25-28-31-34-37-40-43-46-49-55(58)61-52-53(51-60-54(57)48-45-42-39-36-33-30-27-24-21-18-15-12-9-6-3)62-56(59)50-47-44-41-38-35-32-29-26-23-20-17-14-11-8-5-2/h16-17,19-20,22-23,25-26,53H,4-15,18,21,24,27-52H2,1-3H3/b19-16-,20-17-,25-22-,26-23-
Instrument: AB Sciex TripleTOF 5600+ system (Q-TOF) equipped with a DuoSpray ion source
Instrument type: LC-ESI-QTOF
Ms type: MS2
Ion mode: POSITIVE
Collision energy: 45V
Column name: Acquity UPLC Peptide BEH C18 column (50*2.1 mm; 1.7 um; 130A)(Waters Co.,Milford, MA, USA)
Retention time: 14.3907
Precursor type: [M+NH4]+
Precursor m/z: 886.7835
Intensity: 77497
m/z	relative intensity
71.085	3
77.037	1
79.053	8
81.069	29
83.084	12
85.064	1
85.101	3
91.052	4
93.069	10
95.085	32
97.064	2
97.101	15
99.079	2
105.067	2
107.085	8
109.101	24
111.08	2
111.116	7
119.085	3
121.101	17
123.116	14
125.097	1
125.129	1
127.11	1
133.101	5
135.116	16
137.131	10
147.116	4
149.132	11
151.149	7
153.127	3
161.131	7
163.147	12
165.163	5
167.141	2
173.132	1
175.147	8
177.162	6
179.143	1
179.177	2
189.162	5
191.178	3
193.156	1
203.176	1
207.175	1
217.197	1
221.187	1
231.211	1
233.223	10
233.234	5
235.243	1
243.215	2
245.227	20
247.242	9
249.222	2
251.238	31
253.253	5
261.222	7
263.237	68
265.252	34
277.256	1
279.262	1
279.274	1
291.23	0
301.252	1
307.267	1
313.28	1
317.234	0
317.249	1
319.261	14
321.264	0
321.284	1
323.256	0
323.298	0
325.273	16
327.29	9
335.253	1
337.273	29
339.288	34
351.29	0
353.3	0
359.355	0
379.288	0
419.333	0
463.375	0
495.461	1
507.459	1
509.473	1
513.46	1
513.477	1
515.482	1
525.47	1
527.466	1
527.486	1
543.475	1
545.494	1
547.469	1
559.467	1
561.483	5
563.498	3
563.517	1
573.486	54
575.5	22
575.531	2
577.5	1
577.526	1
583.468	0
585.484	3
585.506	1
585.647	1
585.686	1
587.501	719
588.502	6
588.527	1
589.351	0
589.516	999
590.502	3
590.529	10
591.528	20
591.556	6
599.503	264
600.505	1
601.517	743
602.512	5
602.533	3
603.531	34
603.572	1
613.514	20
615.535	46
615.583	1
617.531	1
617.56	1
619.535	1
627.531	4
629.559	2
633.499	1
685.615	0
699.648	0
713.634	0
729.628	0
739.625	0
743.641	1
757.625	0
757.655	1
771.651	0
771.683	0
785.674	0
785.713	0
804.694	0
827.729	0
828.687	0
851.69	0
851.737	13
851.766	3
851.779	2
865.694	4
865.728	30
865.803	0
867.039	0
869.693	0
869.757	96
870.76	1
883.99	0
884.057	0
886.335	0
886.49	0
886.647	0
886.784	146
887.737	0
887.774	1
887.807	1
887.832	0
