Mass spectrum: TG 50:6; LC-ESI-QTOF; MS2
Name: TG 50:6
Class:  TAG
Formula: C53H90O6
Exact mass: 823.297
SMILES: CCCCCCCCCCCCCCCC(=O)OCC(COC(=O)CCCCCCCC\C=C/C=C\CCCCC)OC(=O)CCCCC\C=C/C=C\C=C/C=C\CC
InChI: InChI=1S/C53H90O6/c1-4-7-10-13-16-19-22-25-26-29-31-34-37-40-43-46-52(55)58-49-50(59-53(56)47-44-41-38-35-32-28-24-21-18-15-12-9-6-3)48-57-51(54)45-42-39-36-33-30-27-23-20-17-14-11-8-5-2/h9,12,15-16,18-19,21-22,24-25,28,32,50H,4-8,10-11,13-14,17,20,23,26-27,29-31,33-49H2,1-3H3/b12-9-,18-15-,19-16-,24-21-,25-22-,32-28-
Instrument: AB Sciex TripleTOF 5600+ system (Q-TOF) equipped with a DuoSpray ion source
Instrument type: LC-ESI-QTOF
Ms type: MS2
Ion mode: POSITIVE
Collision energy: 45V
Column name: Acquity UPLC Peptide BEH C18 column (50*2.1 mm; 1.7 um; 130A)(Waters Co.,Milford, MA, USA)
Retention time: 13.77613
Precursor type: [M+NH4]+
Precursor m/z: 840.7048
Intensity: 2577
m/z	relative intensity
81.069	21
95.083	29
95.091	18
109.1	23
123.116	20
169.1	18
171.119	23
173.135	20
183.174	35
185.132	20
199.152	18
201.163	23
211.15	21
211.204	37
213.163	23
227.177	22
239.237	25
257.206	29
283.234	9
285.244	29
292.961	3
293.225	57
311.23	46
311.244	44
312.294	3
313.278	45
339.232	3
339.284	4
341.293	3
367.277	5
419.321	3
452.949	5
467.411	10
471.334	3
489.396	9
495.439	999
515.403	29
517.418	17
521.449	16
543.426	22
543.45	21
549.476	14
567.413	29
567.429	60
567.446	83
571.459	25
575.498	9
577.529	9
595.447	31
595.474	142
599.496	18
623.502	155
651.521	11
745.635	10
758.635	3
769.228	3
771.607	72
771.648	690
771.69	60
772.643	9
775.536	4
805.659	7
823.659	21
823.705	16
840.651	14
840.703	111
840.739	35
