Mass spectrum: TG 64:13; LC-ESI-QTOF; MS2
Name: TG 64:13
Class:  TAG
Formula: C67H104O6
Exact mass: 1005.563
SMILES: CCCCCCCC\C=C/CCCCCCCCCC(=O)OCC(COC(=O)CC\C=C/C\C=C/C\C=C/C\C=C/C\C=C/C\C=C/CC)OC(=O)CC\C=C/C\C=C/C\C=C/C\C=C/C\C=C/C\C=C/CC
InChI: InChI=1S/C67H104O6/c1-4-7-10-13-16-19-22-25-28-31-33-36-39-42-45-48-51-54-57-60-66(69)72-63-64(62-71-65(68)59-56-53-50-47-44-41-38-35-30-27-24-21-18-15-12-9-6-3)73-67(70)61-58-55-52-49-46-43-40-37-34-32-29-26-23-20-17-14-11-8-5-2/h7-8,10-11,16-17,19-20,25-30,33-34,36-37,42-43,45-46,51-52,54-55,64H,4-6,9,12-15,18,21-24,31-32,35,38-41,44,47-50,53,56-63H2,1-3H3/b10-7-,11-8-,19-16-,20-17-,28-25-,29-26-,30-27-,36-33-,37-34-,45-42-,46-43-,54-51-,55-52-
Instrument: AB Sciex TripleTOF 5600+ system (Q-TOF) equipped with a DuoSpray ion source
Instrument type: LC-ESI-QTOF
Ms type: MS2
Ion mode: POSITIVE
Collision energy: 45V
Column name: Acquity UPLC Peptide BEH C18 column (50*2.1 mm; 1.7 um; 130A)(Waters Co.,Milford, MA, USA)
Retention time: 14.33278
Precursor type: [M+NH4]+
Precursor m/z: 1022.817
Intensity: 2329
m/z	relative intensity
81.07	12
91.054	15
93.067	15
95.083	17
109.1	10
117.069	16
119.086	14
121.097	12
131.083	10
133.103	11
140.068	12
145.103	11
149.135	10
157.1	15
159.117	17
161.134	10
163.147	11
169.103	14
171.118	13
173.134	15
181.1	13
183.117	15
185.133	18
187.147	12
197.133	16
199.151	10
201.166	23
209.13	12
211.153	17
213.163	17
215.176	16
223.149	12
225.162	15
227.177	14
251.179	10
275.27	9
281.231	6
283.211	5
293.225	34
293.244	7
293.283	20
299.211	4
309.232	4
311.232	36
311.252	18
325.22	4
351.221	9
367.261	8
367.315	39
367.33	42
385.262	10
385.274	14
385.291	5
421.335	10
561.461	3
585.497	4
595.476	3
603.502	4
621.475	9
623.491	7
625.422	4
639.503	3
651.536	25
651.561	7
673.489	18
673.512	30
673.534	53
673.572	4
675.402	3
675.554	6
677.555	999
678.554	29
693.528	3
695.492	125
695.521	67
695.577	4
697.549	3
717.455	13
717.486	22
717.515	14
749.532	3
902.733	11
940.7	6
940.736	7
940.783	7
996.794	6
1001.749	451
1001.784	301
1001.857	6
1002.772	19
1005.759	14
1005.784	19
1005.825	20
1022.775	60
1022.803	115
1022.836	238
1022.874	30
1022.902	10
1023.796	8
1023.84	12
