Mass spectrum: TG 56:7; LC-ESI-QTOF; MS2
Name: TG 56:7
Class:  TAG
Formula: C59H100O6
Exact mass: 905.443
SMILES: CCCCCCCCCCCCCCCC(=O)OCC(COC(=O)CCCCC\C=C/C\C=C/C\C=C/C\C=C/C\C=C/CC)OC(=O)CCCCCCCC\C=C/C=C\CCCCC
InChI: InChI=1S/C59H100O6/c1-4-7-10-13-16-19-22-25-27-28-29-30-32-34-37-40-43-46-49-52-58(61)64-55-56(54-63-57(60)51-48-45-42-39-36-33-24-21-18-15-12-9-6-3)65-59(62)53-50-47-44-41-38-35-31-26-23-20-17-14-11-8-5-2/h7,10,16-17,19-20,23,25-27,29-30,34,37,56H,4-6,8-9,11-15,18,21-22,24,28,31-33,35-36,38-55H2,1-3H3/b10-7-,19-16-,20-17-,26-23-,27-25-,30-29-,37-34-
Instrument: AB Sciex TripleTOF 5600+ system (Q-TOF) equipped with a DuoSpray ion source
Instrument type: LC-ESI-QTOF
Ms type: MS2
Ion mode: POSITIVE
Collision energy: 45V
Column name: Acquity UPLC Peptide BEH C18 column (50*2.1 mm; 1.7 um; 130A)(Waters Co.,Milford, MA, USA)
Retention time: 14.26363
Precursor type: [M+NH4]+
Precursor m/z: 922.7817
Intensity: 13393
m/z	relative intensity
79.053	11
81.069	35
83.083	9
85.101	9
91.054	19
93.068	15
95.085	32
97.099	10
105.07	9
107.084	12
109.101	24
111.116	6
117.07	9
119.085	13
121.102	23
123.116	18
129.068	10
131.085	19
133.101	14
135.115	18
137.132	6
143.087	6
145.102	12
147.115	10
149.131	7
157.102	9
159.116	26
161.134	18
163.144	6
163.154	6
165.163	5
169.102	7
171.116	16
173.133	22
175.147	19
177.163	7
183.117	17
185.132	24
187.148	32
189.16	11
197.13	9
197.142	6
199.148	26
201.129	6
201.164	79
203.179	6
211.149	16
213.165	11
215.177	17
225.163	15
227.181	6
239.233	15
239.242	7
241.195	8
245.225	9
247.244	8
263.237	24
265.253	54
267.212	74
269.224	6
271.21	2
283.203	5
285.221	86
285.264	3
287.236	3
295.243	20
297.265	2
311.23	5
311.244	6
311.263	3
313.252	83
313.285	20
319.269	7
321.282	3
323.232	2
337.273	50
338.286	3
339.257	3
339.287	161
339.321	2
340.291	5
341.246	6
341.29	4
341.31	9
351.274	3
357.249	4
359.262	3
365.302	2
367.289	3
369.279	12
369.296	3
385.277	6
387.286	2
393.289	4
393.311	5
437.367	2
447.346	2
461.377	2
487.381	4
501.398	4
503.404	3
527.402	3
531.443	4
549.466	5
549.484	11
551.484	3
555.441	3
573.483	4
575.502	477
576.484	3
576.511	15
577.512	25
577.537	9
577.555	6
595.479	3
599.492	6
600.501	13
601.489	4
601.51	12
601.53	11
601.554	3
603.534	999
604.511	5
604.532	21
604.557	13
619.471	5
620.458	5
620.478	5
621.46	4
621.485	31
621.505	13
623.503	370
624.491	6
624.512	10
625.518	269
626.518	15
639.489	3
641.512	5
645.497	5
646.466	3
646.49	15
649.516	348
650.502	8
650.526	14
651.538	3
667.526	4
741.602	1
753.633	1
769.652	1
779.617	1
781.66	1
783.642	2
795.626	1
809.661	1
821.68	1
835.682	2
840.695	6
840.739	6
849.696	1
863.729	1
887.751	13
887.78	6
902.664	3
902.728	204
902.756	87
903.716	18
903.742	23
903.773	7
905.733	55
905.764	167
905.818	5
906.765	6
922.498	2
922.786	433
923.754	9
923.785	12
923.812	6
