Mass spectrum: TG 54:7; LC-ESI-QTOF; MS2
Name: TG 54:7
Class:  TAG
Formula: C57H96O6
Exact mass: 877.389
SMILES: CCCCCCCCCCCCCCCC(=O)OCC(COC(=O)CCC\C=C/C\C=C/C\C=C/C\C=C/C\C=C/CC)OC(=O)CCCCCCCC\C=C/C=C\CCCCC
InChI: InChI=1S/C57H96O6/c1-4-7-10-13-16-19-22-25-27-28-30-32-35-38-41-44-47-50-56(59)62-53-54(52-61-55(58)49-46-43-40-37-34-31-24-21-18-15-12-9-6-3)63-57(60)51-48-45-42-39-36-33-29-26-23-20-17-14-11-8-5-2/h7,10,16-17,19-20,23,25-27,30,32,38,41,54H,4-6,8-9,11-15,18,21-22,24,28-29,31,33-37,39-40,42-53H2,1-3H3/b10-7-,19-16-,20-17-,26-23-,27-25-,32-30-,41-38-
Instrument: AB Sciex TripleTOF 5600+ system (Q-TOF) equipped with a DuoSpray ion source
Instrument type: LC-ESI-QTOF
Ms type: MS2
Ion mode: POSITIVE
Collision energy: 45V
Column name: Acquity UPLC Peptide BEH C18 column (50*2.1 mm; 1.7 um; 130A)(Waters Co.,Milford, MA, USA)
Retention time: 14.03462
Precursor type: [M+NH4]+
Precursor m/z: 894.7499
Intensity: 56984
m/z	relative intensity
71.085	6
77.039	2
79.054	11
81.07	28
83.049	1
83.085	9
85.065	1
85.101	5
91.053	16
93.069	14
95.084	33
97.065	3
97.1	6
99.116	1
105.068	8
107.085	10
109.1	22
111.079	1
111.115	2
115.053	2
117.069	13
119.085	13
121.099	14
123.116	15
125.094	1
129.068	8
131.084	21
133.1	13
135.077	1
135.116	13
137.131	7
141.067	2
143.084	6
145.101	13
147.114	9
149.098	2
149.132	7
151.145	2
155.082	3
157.098	8
159.116	24
161.1	1
161.132	15
163.108	4
163.147	9
165.123	1
165.163	2
169.1	8
171.116	18
173.094	1
173.131	23
175.111	3
175.147	20
177.126	3
177.162	2
181.099	1
183.117	12
185.132	23
187.147	18
189.127	4
189.163	11
191.143	1
195.113	1
197.131	14
199.146	18
201.126	4
201.163	84
203.141	4
203.179	3
211.147	15
213.164	6
215.142	5
215.181	2
217.153	1
221.226	2
225.163	12
227.179	2
229.158	3
237.22	2
239.179	8
239.235	32
241.194	5
243.168	2
243.209	9
245.224	9
257.183	2
257.195	1
257.218	3
257.232	4
257.251	2
261.218	3
263.236	35
265.185	1
265.196	2
267.209	90
269.225	2
271.182	0
283.202	6
283.242	0
284.338	0
285.22	98
287.229	1
287.246	0
293.216	1
293.237	0
297.27	1
299.203	1
301.203	0
301.255	0
311.242	2
311.254	4
311.27	1
313.272	136
317.248	1
319.26	8
335.257	1
337.271	110
339.283	3
339.297	2
341.23	0
341.249	6
357.238	2
359.252	1
365.268	0
367.271	2
367.289	2
371.322	0
391.279	3
391.295	1
393.303	0
423.352	1
437.361	1
447.349	0
449.362	0
451.377	0
459.343	0
459.36	0
461.366	0
463.371	0
465.383	0
473.353	0
475.389	1
477.376	0
487.387	0
497.364	0
499.383	0
501.394	0
501.455	1
501.481	0
505.428	0
505.448	1
511.357	0
511.433	0
513.389	0
515.419	0
519.438	0
523.443	1
523.464	0
525.391	0
527.416	0
529.432	2
533.427	0
533.452	1
535.46	3
535.484	1
539.415	0
547.448	7
547.488	1
549.457	2
549.487	20
551.405	0
559.455	1
561.485	3
565.474	0
569.452	0
571.436	0
573.45	2
573.478	12
573.504	5
573.692	1
573.72	2
575.499	999
575.954	0
576.484	4
576.501	5
576.521	3
577.513	7
577.543	1
587.482	1
587.518	0
589.516	0
593.443	0
595.47	10
595.616	0
597.484	226
598.477	1
599.467	0
599.502	4
599.526	1
601.517	0
603.467	0
613.461	0
613.484	1
615.47	1
615.487	1
615.512	1
619.544	0
621.485	291
621.538	1
622.468	0
622.487	1
623.499	12
625.524	1
637.475	1
639.499	2
649.51	1
715.6	0
727.57	0
737.583	0
741.592	0
753.602	1
755.595	0
755.642	0
765.601	0
767.613	0
767.642	0
769.625	0
779.639	0
781.616	0
793.622	0
793.678	0
795.662	0
807.634	0
807.659	0
807.685	0
812.664	0
812.689	1
821.655	0
832.692	0
832.746	0
841.693	0
859.705	4
859.733	4
859.775	0
874.948	0
877.665	1
877.723	85
878.703	0
878.763	0
891.947	0
894.516	0
894.671	0
894.75	201
894.826	0
895.718	1
895.744	1
895.77	1
895.795	0
