Mass spectrum: TG 58:8; LC-ESI-QTOF; MS2
Name: TG 58:8
Class:  TAG
Formula: C61H102O6
Exact mass: 931.481
SMILES: CCCCCC\C=C/CCCCCCCCCC(=O)OCC(COC(=O)CC\C=C/C\C=C/C\C=C/C\C=C/C\C=C/C\C=C/CC)OC(=O)CCCCCCCCC\C=C/CCCCCC
InChI: InChI=1S/C61H102O6/c1-4-7-10-13-16-19-22-25-28-29-30-31-34-36-39-42-45-48-51-54-60(63)66-57-58(67-61(64)55-52-49-46-43-40-37-33-27-24-21-18-15-12-9-6-3)56-65-59(62)53-50-47-44-41-38-35-32-26-23-20-17-14-11-8-5-2/h7,10,16,19-21,23-25,28,30-31,36,39,45,48,58H,4-6,8-9,11-15,17-18,22,26-27,29,32-35,37-38,40-44,46-47,49-57H2,1-3H3/b10-7-,19-16-,23-20-,24-21-,28-25-,31-30-,39-36-,48-45-
Instrument: AB Sciex TripleTOF 5600+ system (Q-TOF) equipped with a DuoSpray ion source
Instrument type: LC-ESI-QTOF
Ms type: MS2
Ion mode: POSITIVE
Collision energy: 45V
Column name: Acquity UPLC Peptide BEH C18 column (50*2.1 mm; 1.7 um; 130A)(Waters Co.,Milford, MA, USA)
Retention time: 14.41156
Precursor type: [M+NH4]+
Precursor m/z: 948.7995
Intensity: 8095
m/z	relative intensity
79.054	5
81.069	14
83.086	9
91.053	5
93.068	7
95.084	14
97.1	5
107.086	5
109.099	8
111.116	5
117.066	3
119.083	4
121.1	13
123.116	6
131.085	5
133.099	4
135.116	10
143.083	3
145.097	3
147.117	4
149.131	7
159.116	7
161.131	8
163.15	4
169.099	7
171.115	8
173.134	5
175.147	6
181.098	5
183.119	5
185.132	10
187.144	3
195.117	4
197.133	7
199.147	7
201.126	4
201.163	6
203.144	3
203.179	3
209.136	4
211.148	7
213.163	8
215.144	3
215.179	7
223.149	5
225.163	7
227.181	14
229.152	4
241.156	3
247.24	14
263.232	4
265.195	3
265.252	56
269.222	5
283.205	2
283.245	3
291.211	1
292.96	1
293.225	37
295.238	1
309.224	3
311.237	63
312.243	1
313.27	2
313.284	1
321.268	2
321.28	1
323.296	1
337.278	5
339.289	66
341.304	2
351.219	1
351.239	6
352.225	3
367.26	3
383.253	2
385.266	2
393.297	7
439.397	1
529.489	1
557.471	2
575.49	14
575.513	7
577.507	5
577.533	5
578.507	7
578.532	5
599.493	8
599.518	4
600.491	9
600.511	12
600.53	5
601.65	4
603.535	999
604.531	21
604.561	9
621.488	2
623.504	9
625.521	1
629.542	2
645.487	3
646.456	2
646.472	4
646.496	7
647.492	9
647.521	4
647.539	2
649.519	355
650.498	13
650.521	16
650.549	3
651.539	7
651.556	4
667.53	2
671.473	2
671.499	7
671.529	2
671.556	1
672.489	17
672.518	9
672.545	2
673.507	0
675.507	3
675.536	5
675.584	1
677.547	0
702.983	0
847.698	1
849.694	0
863.719	0
866.728	4
913.734	1
913.755	3
913.778	4
928.74	351
929.723	2
929.756	6
929.817	1
931.703	1
931.756	29
931.784	31
931.814	9
931.845	1
932.75	1
932.797	3
948.799	256
948.907	1
949.78	4
949.807	7
