Mass spectrum: TG 49:3; LC-ESI-QTOF; MS2
Name: TG 49:3
Class:  TAG
Formula: C52H94O6
Exact mass: 815.318
SMILES: CCCCCCCC\C=C/CCCCCC(=O)OC(COC(=O)CCCCCCCCC\C=C/CCCCCC)COC(=O)CCCCCCC\C=C/CCCCC
InChI: InChI=1S/C52H94O6/c1-4-7-10-13-16-19-22-25-26-28-30-33-36-39-42-45-51(54)57-48-49(47-56-50(53)44-41-38-35-32-29-24-21-18-15-12-9-6-3)58-52(55)46-43-40-37-34-31-27-23-20-17-14-11-8-5-2/h18-19,21-22,27,31,49H,4-17,20,23-26,28-30,32-48H2,1-3H3/b21-18-,22-19-,31-27-
Instrument: AB Sciex TripleTOF 5600+ system (Q-TOF) equipped with a DuoSpray ion source
Instrument type: LC-ESI-QTOF
Ms type: MS2
Ion mode: POSITIVE
Collision energy: 45V
Column name: Acquity UPLC Peptide BEH C18 column (50*2.1 mm; 1.7 um; 130A)(Waters Co.,Milford, MA, USA)
Retention time: 14.06501
Precursor type: [M+NH4]+
Precursor m/z: 832.7424
Intensity: 615
m/z	relative intensity
109.1	225
163.151	107
187.0	100
221.186	225
263.237	253
269.002	107
292.961	75
313.264	50
337.278	75
339.29	175
391.01	75
458.888	50
533.438	340
533.478	250
535.47	664
537.477	75
547.474	303
559.463	664
561.469	280
561.478	280
561.493	999
573.479	536
573.51	203
575.505	182
577.509	844
577.533	538
587.499	250
601.503	87
815.718	87
832.68	150
832.743	275
