Mass spectrum: TG 58:8; LC-ESI-QTOF; MS2
Name: TG 58:8
Class:  TAG
Formula: C61H102O6
Exact mass: 931.481
SMILES: CCCCCCCCCCCCCCCCCC(=O)OCC(COC(=O)CCC\C=C/C\C=C/C\C=C/C\C=C/CCCCC)OC(=O)CCC\C=C/C\C=C/C\C=C/C\C=C/CCCCC
InChI: InChI=1S/C61H102O6/c1-4-7-10-13-16-19-22-25-28-30-33-36-39-42-45-48-51-54-60(63)66-57-58(56-65-59(62)53-50-47-44-41-38-35-32-27-24-21-18-15-12-9-6-3)67-61(64)55-52-49-46-43-40-37-34-31-29-26-23-20-17-14-11-8-5-2/h16-17,19-20,25-26,28-29,33-34,36-37,42-43,45-46,58H,4-15,18,21-24,27,30-32,35,38-41,44,47-57H2,1-3H3/b19-16-,20-17-,28-25-,29-26-,36-33-,37-34-,45-42-,46-43-
Instrument: AB Sciex TripleTOF 5600+ system (Q-TOF) equipped with a DuoSpray ion source
Instrument type: LC-ESI-QTOF
Ms type: MS2
Ion mode: POSITIVE
Collision energy: 45V
Column name: Acquity UPLC Peptide BEH C18 column (50*2.1 mm; 1.7 um; 130A)(Waters Co.,Milford, MA, USA)
Retention time: 14.42478
Precursor type: [M+NH4]+
Precursor m/z: 948.8046
Intensity: 5977
m/z	relative intensity
81.07	14
83.084	6
91.053	11
93.069	8
95.085	13
95.092	6
97.1	7
105.068	7
107.084	6
109.1	10
119.082	6
121.098	8
123.113	6
131.084	8
133.102	6
135.114	8
145.101	9
149.132	7
159.119	7
161.129	8
163.149	9
169.103	8
171.12	7
173.134	8
185.132	9
187.15	6
199.152	6
201.164	7
209.132	6
211.145	8
213.164	12
215.183	8
225.162	7
227.179	15
237.164	8
241.154	7
247.241	7
263.231	9
265.25	22
267.204	8
267.265	9
269.228	8
283.193	3
283.24	9
293.223	33
293.236	16
309.222	2
311.237	61
311.266	3
319.26	5
321.274	3
337.265	8
337.286	9
339.289	36
341.288	2
341.302	10
341.314	7
365.314	2
367.262	6
385.281	3
393.298	5
395.318	3
575.481	4
590.521	4
600.502	2
601.514	10
601.64	4
603.532	999
603.599	4
605.531	3
605.566	2
623.504	6
647.492	52
647.511	60
647.547	3
649.495	57
649.52	144
649.541	32
649.565	5
651.529	75
651.562	10
667.519	2
669.543	2
675.544	5
821.656	1
828.723	1
835.699	2
854.741	1
861.713	2
865.729	1
866.724	4
880.736	3
913.746	8
930.965	1
931.77	56
931.82	8
948.69	1
948.799	288
948.986	2
