Mass spectrum: TG 53:1; LC-ESI-QTOF; MS2
Name: TG 53:1
Class:  TAG
Formula: C56H106O6
Exact mass: 875.458
SMILES: CCCCCCCCCCCCCCCCCCC(=O)OCC(COC(=O)CCCCCCCCCCCCCCC)OC(=O)CCCCCCCCC\C=C/CCCCCC
InChI: InChI=1S/C56H106O6/c1-4-7-10-13-16-19-22-25-27-29-31-34-37-40-43-46-49-55(58)61-52-53(51-60-54(57)48-45-42-39-36-33-30-24-21-18-15-12-9-6-3)62-56(59)50-47-44-41-38-35-32-28-26-23-20-17-14-11-8-5-2/h20,23,53H,4-19,21-22,24-52H2,1-3H3/b23-20-
Instrument: AB Sciex TripleTOF 5600+ system (Q-TOF) equipped with a DuoSpray ion source
Instrument type: LC-ESI-QTOF
Ms type: MS2
Ion mode: POSITIVE
Collision energy: 45V
Column name: Acquity UPLC Peptide BEH C18 column (50*2.1 mm; 1.7 um; 130A)(Waters Co.,Milford, MA, USA)
Retention time: 15.36588
Precursor type: [M+NH4]+
Precursor m/z: 892.829
Intensity: 11655
m/z	relative intensity
71.085	13
79.054	2
81.069	23
83.085	17
85.101	13
93.069	2
95.085	24
97.1	16
107.086	2
109.1	20
111.116	7
113.132	3
121.101	7
123.115	13
125.131	5
135.114	8
137.132	4
149.131	5
151.147	4
163.147	2
165.159	4
179.178	3
221.227	3
239.237	30
247.242	11
249.26	2
253.252	12
263.271	3
265.253	49
267.269	11
275.276	1
279.269	2
281.284	10
284.29	1
293.287	2
298.316	1
307.298	2
313.258	3
313.272	8
313.29	1
321.275	1
327.281	1
327.293	3
339.277	1
339.294	5
341.302	5
353.299	1
355.309	3
355.329	4
523.463	3
537.473	6
537.494	8
549.479	13
549.503	3
549.517	2
551.495	32
551.514	23
563.49	14
563.515	9
563.537	5
565.517	108
566.506	4
566.528	8
575.711	4
577.517	819
578.504	4
578.539	2
579.488	2
579.533	113
580.529	3
580.552	7
591.533	472
591.695	2
592.551	2
593.547	999
594.526	13
594.553	43
594.574	13
603.655	2
605.547	480
606.558	2
607.563	14
607.588	3
617.637	2
619.564	960
620.553	5
620.581	2
621.564	7
621.59	7
633.559	3
633.578	12
633.61	2
647.583	5
647.612	3
675.636	0
845.685	1
857.756	0
857.807	1
865.11	0
867.682	2
867.744	25
867.774	51
867.807	18
867.827	4
868.03	0
868.769	1
875.745	1
875.807	8
890.027	0
891.57	0
892.711	1
892.75	7
892.786	19
892.834	213
892.923	2
893.788	2
893.837	2
