Mass spectrum: BMP 40:8; LC-ESI-QTOF; MS2
Name: BMP 40:8
Class:  BMP
Formula: C46H75O10P
Exact mass: 819.072
SMILES: CCCCC\C=C/C\C=C/CCCCCCCC(=O)OC(CO)COP(O)(=O)OCC(CO)OC(=O)CC\C=C/C\C=C/C\C=C/C\C=C/C\C=C/C\C=C/CC
InChI: InChI=1S/C46H75O10P/c1-3-5-7-9-11-13-15-17-19-20-21-22-24-26-28-30-32-34-36-38-46(50)56-44(40-48)42-54-57(51,52)53-41-43(39-47)55-45(49)37-35-33-31-29-27-25-23-18-16-14-12-10-8-6-4-2/h5,7,11-14,17-19,21-23,26,28,32,34,43-44,47-48H,3-4,6,8-10,15-16,20,24-25,27,29-31,33,35-42H2,1-2H3,(H,51,52)/b7-5-,13-11-,14-12-,19-17-,22-21-,23-18-,28-26-,34-32-
Instrument: AB Sciex TripleTOF 5600+ system (Q-TOF) equipped with a DuoSpray ion source
Instrument type: LC-ESI-QTOF
Ms type: MS2
Ion mode: POSITIVE
Collision energy: 45V
Column name: Acquity UPLC Peptide BEH C18 column (50*2.1 mm; 1.7 um; 130A)(Waters Co.,Milford, MA, USA)
Retention time: 7.887984
Precursor type: [M+NH4]+
Precursor m/z: 836.5414
Intensity: 2735
m/z	relative intensity
81.069	20
91.052	11
93.069	15
95.083	15
105.068	11
109.101	11
131.082	11
135.116	9
145.102	8
147.118	19
163.15	9
203.182	13
211.148	8
245.231	13
269.227	8
287.228	3
293.224	13
295.525	3
311.238	11
336.23	12
337.273	999
361.273	133
361.296	15
384.066	5
385.261	114
385.275	518
387.285	3
483.259	3
597.383	7
597.422	42
597.454	9
647.507	17
651.508	7
651.557	8
783.483	5
819.523	4
