Mass spectrum: TG 52:6; LC-ESI-QTOF; MS2
Name: TG 52:6
Class:  TAG
Formula: C55H94O6
Exact mass: 851.3509999999999
SMILES: CCCCCCCCCCCCCCCC(=O)OCC(COC(=O)CCC\C=C/C\C=C/C\C=C/C\C=C/C\C=C/CC)OC(=O)CCCCC\C=C/CCCCCCCC
InChI: InChI=1S/C55H94O6/c1-4-7-10-13-16-19-22-25-26-27-28-31-33-36-39-42-45-48-54(57)60-51-52(61-55(58)49-46-43-40-37-34-30-24-21-18-15-12-9-6-3)50-59-53(56)47-44-41-38-35-32-29-23-20-17-14-11-8-5-2/h7,10,16,19,25-26,28,30-31,34,36,39,52H,4-6,8-9,11-15,17-18,20-24,27,29,32-33,35,37-38,40-51H2,1-3H3/b10-7-,19-16-,26-25-,31-28-,34-30-,39-36-
Instrument: AB Sciex TripleTOF 5600+ system (Q-TOF) equipped with a DuoSpray ion source
Instrument type: LC-ESI-QTOF
Ms type: MS2
Ion mode: POSITIVE
Collision energy: 45V
Column name: Acquity UPLC Peptide BEH C18 column (50*2.1 mm; 1.7 um; 130A)(Waters Co.,Milford, MA, USA)
Retention time: 13.93594
Precursor type: [M+NH4]+
Precursor m/z: 868.734
Intensity: 1246
m/z	relative intensity
81.07	42
93.07	33
95.085	59
105.072	29
109.101	25
119.085	29
123.117	23
171.115	29
189.163	25
203.18	103
211.205	47
263.241	25
269.215	25
269.226	85
285.215	18
285.24	106
285.255	25
287.232	72
303.223	8
313.274	12
317.26	8
337.246	12
337.274	81
338.984	8
339.286	42
391.276	8
521.471	17
547.474	999
549.497	29
569.44	85
569.466	63
571.445	29
571.474	154
571.489	89
573.474	21
573.496	46
575.5	25
595.474	61
597.492	29
599.506	68
601.522	235
621.458	25
623.494	47
623.513	98
786.663	27
849.69	505
849.721	238
849.927	8
851.708	34
851.754	42
868.704	47
868.723	94
868.744	85
868.773	77
