Mass spectrum: TG 51:1; LC-ESI-QTOF; MS2
Name: TG 51:1
Class:  TAG
Formula: C54H102O6
Exact mass: 847.404
SMILES: CCCCCCCCCCCCCCCC(=O)OCC(COC(=O)CCCCCCC\C=C/CCCCCCCCC)OC(=O)CCCCCCCCCCCCCCC
InChI: InChI=1S/C54H102O6/c1-4-7-10-13-16-19-22-25-26-27-30-32-35-38-41-44-47-53(56)59-50-51(60-54(57)48-45-42-39-36-33-29-24-21-18-15-12-9-6-3)49-58-52(55)46-43-40-37-34-31-28-23-20-17-14-11-8-5-2/h26-27,51H,4-25,28-50H2,1-3H3/b27-26-
Instrument: AB Sciex TripleTOF 5600+ system (Q-TOF) equipped with a DuoSpray ion source
Instrument type: LC-ESI-QTOF
Ms type: MS2
Ion mode: POSITIVE
Collision energy: 45V
Column name: Acquity UPLC Peptide BEH C18 column (50*2.1 mm; 1.7 um; 130A)(Waters Co.,Milford, MA, USA)
Retention time: 14.96045
Precursor type: [M+NH4]+
Precursor m/z: 864.8003
Intensity: 1605
m/z	relative intensity
81.071	22
83.086	25
85.101	14
95.085	46
97.101	24
109.1	31
121.102	14
135.116	14
165.161	19
226.982	31
239.238	39
247.239	16
253.256	34
265.249	31
265.272	14
268.998	28
287.001	11
313.271	30
327.291	8
339.287	5
341.301	5
344.978	6
366.955	5
372.949	5
388.981	5
390.991	25
473.006	9
537.48	28
549.468	28
549.504	28
551.481	40
551.508	134
551.533	28
563.498	275
563.528	83
565.516	999
565.543	175
566.519	45
577.499	293
577.521	777
577.544	165
579.514	34
579.536	68
579.558	31
591.522	779
591.542	821
591.568	117
592.543	25
593.547	40
605.544	86
605.568	54
619.552	42
829.754	6
847.791	8
863.709	5
864.706	23
864.74	206
864.768	137
864.797	77
864.816	74
864.844	25
865.8	11
