Mass spectrum: TG 52:7; LC-ESI-QTOF; MS2
Name: TG 52:7
Class:  TAG
Formula: C55H92O6
Exact mass: 849.3349999999999
SMILES: CCCCCCCCCCCCCC(=O)OCC(COC(=O)CC\C=C/C\C=C/C\C=C/C\C=C/C\C=C/C\C=C/CC)OC(=O)CCCCC\C=C/CCCCCCCC
InChI: InChI=1S/C55H92O6/c1-4-7-10-13-16-19-22-24-25-26-27-28-29-31-33-36-39-42-45-48-54(57)60-51-52(50-59-53(56)47-44-41-38-35-32-21-18-15-12-9-6-3)61-55(58)49-46-43-40-37-34-30-23-20-17-14-11-8-5-2/h7,10,16,19,24-25,27-28,30-31,33-34,39,42,52H,4-6,8-9,11-15,17-18,20-23,26,29,32,35-38,40-41,43-51H2,1-3H3/b10-7-,19-16-,25-24-,28-27-,33-31-,34-30-,42-39-
Instrument: AB Sciex TripleTOF 5600+ system (Q-TOF) equipped with a DuoSpray ion source
Instrument type: LC-ESI-QTOF
Ms type: MS2
Ion mode: POSITIVE
Collision energy: 45V
Column name: Acquity UPLC Peptide BEH C18 column (50*2.1 mm; 1.7 um; 130A)(Waters Co.,Milford, MA, USA)
Retention time: 13.79318
Precursor type: [M+NH4]+
Precursor m/z: 866.7283
Intensity: 2197
m/z	relative intensity
81.071	40
95.085	30
97.098	22
135.115	23
157.105	23
199.146	26
201.163	35
211.205	47
267.213	23
283.221	24
285.215	17
285.244	50
285.263	10
293.228	54
301.219	7
311.23	88
311.253	43
311.269	30
313.264	14
337.28	20
339.25	10
339.294	17
374.96	10
456.977	10
521.448	999
521.475	190
522.458	27
545.433	23
545.464	30
547.438	30
547.47	143
547.501	27
550.501	56
567.44	64
569.428	20
569.452	41
569.475	51
573.5	37
593.439	23
593.46	30
593.483	23
595.448	50
595.466	88
595.488	61
597.494	38
601.52	69
619.491	40
621.468	74
621.483	37
621.5	64
621.525	37
623.487	30
623.529	26
649.499	20
649.526	33
779.613	10
806.594	11
831.702	11
845.004	10
847.645	103
847.681	867
847.715	352
847.774	26
848.705	10
849.712	54
866.671	23
866.714	109
866.739	74
866.78	61
