Mass spectrum: TG 48:2; LC-ESI-QTOF; MS2
Name: TG 48:2
Class:  TAG
Formula: C51H94O6
Exact mass: 803.3069999999999
SMILES: CCCCCCCCCCCCCCCC(=O)OC(COC(=O)CCCCCCCCCCCCC)COC(=O)CCCCCCCC\C=C/C=C\CCCCC
InChI: InChI=1S/C51H94O6/c1-4-7-10-13-16-19-22-24-25-27-29-32-35-38-41-44-50(53)56-47-48(46-55-49(52)43-40-37-34-31-28-21-18-15-12-9-6-3)57-51(54)45-42-39-36-33-30-26-23-20-17-14-11-8-5-2/h16,19,22,24,48H,4-15,17-18,20-21,23,25-47H2,1-3H3/b19-16-,24-22-
Instrument: AB Sciex TripleTOF 5600+ system (Q-TOF) equipped with a DuoSpray ion source
Instrument type: LC-ESI-QTOF
Ms type: MS2
Ion mode: POSITIVE
Collision energy: 45V
Column name: Acquity UPLC Peptide BEH C18 column (50*2.1 mm; 1.7 um; 130A)(Waters Co.,Milford, MA, USA)
Retention time: 14.15761
Precursor type: [M+NH4]+
Precursor m/z: 820.7366
Intensity: 368219
m/z	relative intensity
71.044	0
71.05	1
71.086	27
77.037	2
79.053	13
81.07	71
83.048	0
83.085	40
85.064	2
85.101	28
91.054	5
93.069	17
95.086	83
97.063	2
97.101	33
99.079	5
99.115	5
105.069	3
107.085	12
109.065	0
109.101	57
111.08	4
111.116	19
113.096	3
113.132	2
119.085	3
121.101	37
123.117	41
125.095	3
125.132	6
127.111	2
127.147	1
133.1	5
135.117	30
137.095	0
137.132	23
139.11	3
139.148	2
141.128	1
141.165	1
147.116	5
149.132	16
151.148	9
153.127	4
155.144	1
155.181	0
161.132	7
163.147	12
165.164	7
167.142	3
173.131	0
175.147	10
177.164	7
179.141	1
179.181	2
181.157	1
183.175	3
189.164	4
191.179	3
193.158	1
193.184	1
193.197	4
203.178	1
205.194	0
207.173	1
209.19	4
211.205	70
217.194	0
219.21	30
221.189	0
221.225	5
223.166	0
228.227	1
228.239	1
229.212	1
235.167	0
237.221	81
239.238	75
245.227	24
247.24	6
249.185	0
254.25	0
256.26	2
257.215	0
257.249	1
263.237	70
265.252	24
269.246	0
273.22	0
277.215	0
279.234	0
282.275	0
283.226	0
285.242	23
293.239	0
293.252	1
295.262	1
297.277	1
301.252	0
301.269	0
311.227	0
311.257	13
313.245	0
313.273	37
317.247	0
319.263	16
321.279	0
335.248	0
335.267	0
337.259	1
337.277	6
339.285	7
339.309	0
341.295	0
375.368	0
423.343	0
437.381	0
451.393	0
455.427	0
465.386	0
473.431	2
475.446	0
493.413	0
493.432	0
501.455	0
501.475	1
519.424	4
519.446	5
521.455	432
521.835	1
521.851	0
523.364	0
523.47	688
524.458	0
524.478	0
535.474	1
545.766	4
547.353	1
547.469	999
548.075	0
548.266	0
548.472	3
549.374	1
549.484	874
550.489	4
551.505	2
551.53	0
561.47	0
561.491	2
563.507	0
573.679	2
573.707	1
573.722	1
575.358	1
575.5	868
576.479	1
576.506	2
577.518	73
578.521	0
603.533	58
631.572	0
635.556	0
785.677	1
785.699	2
785.723	1
785.757	0
803.71	17
818.164	0
818.201	0
819.809	0
820.577	0
820.737	84
821.713	0
821.749	0
