Mass spectrum: TG 50:2; LC-ESI-QTOF; MS2
Name: TG 50:2
Class:  TAG
Formula: C53H98O6
Exact mass: 831.361
SMILES: CCCCCCCCCCCCCCCC(=O)OCC(COC(=O)CCCCCCCC\C=C/C=C\CCCCC)OC(=O)CCCCCCCCCCCCCCC
InChI: InChI=1S/C53H98O6/c1-4-7-10-13-16-19-22-25-26-29-31-34-37-40-43-46-52(55)58-49-50(59-53(56)47-44-41-38-35-32-28-24-21-18-15-12-9-6-3)48-57-51(54)45-42-39-36-33-30-27-23-20-17-14-11-8-5-2/h16,19,22,25,50H,4-15,17-18,20-21,23-24,26-49H2,1-3H3/b19-16-,25-22-
Instrument: AB Sciex TripleTOF 5600+ system (Q-TOF) equipped with a DuoSpray ion source
Instrument type: LC-ESI-QTOF
Ms type: MS2
Ion mode: POSITIVE
Collision energy: 45V
Column name: Acquity UPLC Peptide BEH C18 column (50*2.1 mm; 1.7 um; 130A)(Waters Co.,Milford, MA, USA)
Retention time: 14.47229
Precursor type: [M+NH4]+
Precursor m/z: 848.7721
Intensity: 188482
m/z	relative intensity
71.048	4
71.084	56
77.036	7
79.052	27
80.823	2
81.068	164
83.083	126
85.062	10
85.099	58
91.051	7
93.067	39
95.083	199
97.063	8
97.099	100
99.078	9
99.114	11
105.067	3
107.083	33
109.098	133
111.079	7
111.114	46
113.093	6
113.128	7
119.08	3
121.098	103
123.114	85
125.092	5
125.129	16
127.109	7
127.145	4
133.096	6
135.113	113
137.129	49
139.108	7
139.144	4
141.123	3
147.111	4
149.13	46
151.142	25
153.125	16
155.136	2
161.13	5
163.144	25
163.223	3
163.238	2
163.251	2
165.159	19
165.299	2
167.144	4
173.129	2
175.145	5
177.16	12
177.249	2
179.176	6
191.173	5
193.194	2
205.194	3
211.203	24
211.314	2
211.334	2
211.385	2
219.207	44
219.32	6
219.335	2
219.357	4
219.372	2
219.386	4
219.407	3
221.221	12
221.241	2
221.344	2
237.218	92
237.337	16
237.366	9
237.383	5
237.398	6
237.427	15
239.234	137
239.342	7
239.366	13
239.384	13
239.398	10
239.411	13
239.426	7
239.448	15
245.225	15
245.339	2
247.239	44
247.358	4
247.368	4
247.377	5
247.4	4
247.424	2
247.447	2
247.458	5
256.262	7
257.232	2
263.233	49
263.351	2
263.387	4
263.411	2
263.441	3
263.466	5
265.249	184
265.368	3
265.395	9
265.414	8
265.439	18
265.466	17
265.488	24
267.259	2
275.244	1
282.28	2
282.479	1
285.22	1
285.244	6
285.397	1
293.237	2
293.25	3
293.397	1
295.251	1
295.274	1
297.276	1
311.254	34
311.392	1
311.409	2
311.427	2
311.459	4
311.486	1
311.512	1
311.548	1
313.272	77
313.415	5
313.432	2
313.446	5
313.466	8
313.478	6
313.497	8
313.525	7
313.546	11
313.57	2
319.239	1
319.256	4
319.267	1
319.289	1
319.403	1
319.48	1
321.265	3
321.282	3
321.418	1
321.453	0
323.277	1
337.268	6
337.297	1
337.5	1
337.524	1
339.287	29
339.436	3
339.457	2
339.48	3
339.498	8
339.516	3
339.532	2
339.548	1
339.56	1
339.574	2
339.59	4
341.298	2
521.456	6
523.468	2
547.467	84
547.709	3
547.724	2
547.745	5
547.771	10
547.786	4
547.831	8
547.876	3
547.911	4
547.94	7
547.963	8
547.993	2
548.152	2
549.48	999
549.653	2
549.685	2
549.942	36
549.973	121
551.499	538
551.725	4
551.741	3
551.849	2
551.88	10
551.963	45
551.994	72
571.465	7
571.484	4
573.49	5
573.709	6
573.739	2
573.967	2
574.211	2
575.497	948
575.676	1
575.714	3
575.986	34
576.013	111
577.511	950
577.735	1
577.966	17
577.998	41
578.031	95
580.143	2
599.501	3
603.527	412
603.789	4
603.815	3
603.835	3
604.022	6
604.044	25
604.071	69
604.115	2
605.556	5
813.683	1
813.759	2
814.315	0
814.408	0
827.71	83
831.711	16
831.75	39
832.116	0
832.228	1
832.269	1
832.346	2
832.417	1
832.474	3
846.08	1
846.185	0
848.768	239
848.913	1
849.031	1
849.085	1
849.109	1
849.153	2
849.2	2
849.235	1
849.276	0
849.305	2
849.346	4
849.372	1
849.402	3
849.443	5
849.48	7
849.513	7
849.531	3
849.564	2
