Mass spectrum: TG 56:8; LC-ESI-QTOF; MS2
Name: TG 56:8
Class:  TAG
Formula: C59H98O6
Exact mass: 903.427
SMILES: CCCCC\C=C/C\C=C/C\C=C/C\C=C/CCCC(=O)OCC(COC(=O)CCCCCCCC\C=C/C=C\CCCCC)OC(=O)CCCCCCCC\C=C/C=C\CCCCC
InChI: InChI=1S/C59H98O6/c1-4-7-10-13-16-19-22-25-28-29-32-34-37-40-43-46-49-52-58(61)64-55-56(65-59(62)53-50-47-44-41-38-35-31-27-24-21-18-15-12-9-6-3)54-63-57(60)51-48-45-42-39-36-33-30-26-23-20-17-14-11-8-5-2/h16-21,23-28,32,34,40,43,56H,4-15,22,29-31,33,35-39,41-42,44-55H2,1-3H3/b19-16-,20-17-,21-18-,26-23-,27-24-,28-25-,34-32-,43-40-
Instrument: AB Sciex TripleTOF 5600+ system (Q-TOF) equipped with a DuoSpray ion source
Instrument type: LC-ESI-QTOF
Ms type: MS2
Ion mode: POSITIVE
Collision energy: 45V
Column name: Acquity UPLC Peptide BEH C18 column (50*2.1 mm; 1.7 um; 130A)(Waters Co.,Milford, MA, USA)
Retention time: 14.06
Precursor type: [M+NH4]+
Precursor m/z: 920.7673
Intensity: 13707
m/z	relative intensity
77.036	3
79.053	10
81.069	25
83.085	8
91.053	14
93.07	12
95.085	31
97.064	3
97.102	7
105.069	8
107.084	8
109.1	13
111.08	3
111.116	4
117.071	9
119.085	9
121.1	18
123.116	10
129.07	7
131.086	14
133.101	9
135.116	13
137.132	6
143.084	4
145.102	12
147.118	6
149.131	10
157.099	6
159.117	15
161.131	12
163.11	3
163.148	7
165.163	3
169.098	8
171.115	13
173.131	16
175.11	3
175.149	14
177.168	3
183.116	8
185.133	14
187.146	11
187.155	6
189.126	3
189.166	6
197.132	11
199.148	18
201.164	60
203.141	6
203.178	4
211.147	7
213.165	6
215.144	3
225.156	3
225.165	8
237.223	3
239.185	3
241.194	3
243.206	3
245.226	12
247.241	11
257.189	4
257.229	3
261.217	3
263.234	22
263.249	3
265.253	28
267.21	63
269.225	3
283.196	1
283.207	2
285.22	73
287.243	3
289.256	1
293.225	3
295.239	1
301.241	2
303.231	1
311.231	3
311.248	3
311.266	2
313.255	3
317.241	1
319.262	3
319.273	3
335.252	3
337.273	93
338.269	1
339.29	111
340.296	2
341.25	5
359.258	2
365.274	1
391.277	2
393.298	2
393.311	2
473.373	1
497.37	1
511.367	1
529.438	2
547.447	4
547.471	1
549.465	4
565.454	1
573.456	1
573.485	12
573.503	5
575.504	67
575.54	2
576.489	1
576.51	3
597.471	3
597.495	1
599.503	80
599.641	3
600.509	1
601.518	999
601.672	2
602.521	74
603.511	2
603.541	6
619.447	1
619.47	3
619.491	1
619.552	2
621.486	293
622.481	3
622.501	3
622.515	2
623.504	191
624.501	3
624.517	4
625.506	4
625.526	7
637.484	1
639.483	3
639.511	2
641.513	2
647.492	2
647.51	7
649.494	4
649.515	10
709.556	0
739.593	0
749.571	1
767.647	0
793.631	1
819.671	0
821.663	2
833.661	2
837.683	1
838.644	1
838.669	3
838.697	17
838.737	3
885.713	5
885.737	5
901.7	40
901.724	219
902.703	4
902.724	5
902.741	2
902.766	2
903.728	59
903.754	43
904.705	1
904.757	2
920.661	1
920.768	244
921.692	1
921.752	5
921.783	4
921.811	3
