Mass spectrum: TG 52:5; LC-ESI-QTOF; MS2
Name: TG 52:5
Class:  TAG
Formula: C55H96O6
Exact mass: 853.367
SMILES: CCCCCCCC\C=C/CCCCCC(=O)OCC(COC(=O)CCCCCCCCC\C=C/C=C\C=C/CC)OC(=O)CCCCCCCCC\C=C/CCCCCC
InChI: InChI=1S/C55H96O6/c1-4-7-10-13-16-19-22-25-27-30-33-36-39-42-45-48-54(57)60-51-52(50-59-53(56)47-44-41-38-35-32-29-24-21-18-15-12-9-6-3)61-55(58)49-46-43-40-37-34-31-28-26-23-20-17-14-11-8-5-2/h7,10,13,16,19-20,22-23,29,32,52H,4-6,8-9,11-12,14-15,17-18,21,24-28,30-31,33-51H2,1-3H3/b10-7-,16-13-,22-19-,23-20-,32-29-
Instrument: AB Sciex TripleTOF 5600+ system (Q-TOF) equipped with a DuoSpray ion source
Instrument type: LC-ESI-QTOF
Ms type: MS2
Ion mode: POSITIVE
Collision energy: 45V
Column name: Acquity UPLC Peptide BEH C18 column (50*2.1 mm; 1.7 um; 130A)(Waters Co.,Milford, MA, USA)
Retention time: 14.01569
Precursor type: [M+NH4]+
Precursor m/z: 870.7529
Intensity: 1033873
m/z	relative intensity
71.049	2
71.086	5
73.066	0
77.038	6
79.054	31
80.825	0
81.069	90
83.048	1
83.085	40
85.066	1
85.101	5
91.054	16
93.07	44
94.793	0
95.085	94
97.1	32
99.08	9
105.069	14
107.085	32
109.063	0
109.101	67
111.078	1
111.085	0
111.116	12
113.096	6
115.112	0
117.068	2
119.085	16
121.101	69
123.116	58
125.097	5
125.132	3
127.112	5
131.086	4
133.101	24
135.117	59
137.095	1
137.132	35
139.112	6
139.147	0
141.128	2
145.102	4
147.117	21
149.132	42
151.113	1
151.147	14
153.127	10
155.142	1
157.101	0
159.116	7
161.132	40
163.115	0
163.148	44
165.127	2
165.164	9
167.142	6
169.158	0
171.117	1
173.133	10
175.148	41
177.128	1
177.164	19
179.144	6
179.179	3
181.123	0
181.159	3
183.121	0
185.132	2
187.148	5
189.13	0
189.164	17
191.138	0
191.17	1
191.179	3
193.158	6
195.142	1
195.174	1
197.133	0
199.143	0
199.151	1
201.164	3
203.143	0
203.179	8
205.157	0
205.194	3
207.136	0
207.173	3
209.153	1
213.155	0
213.165	1
215.18	2
217.156	0
217.195	7
219.18	0
219.211	45
221.155	1
221.189	3
221.22	0
221.23	0
223.17	0
227.174	0
229.197	1
231.173	0
231.209	1
233.187	1
233.226	3
235.168	3
235.206	6
235.23	0
235.242	1
237.221	117
239.236	4
241.198	0
243.21	21
245.226	85
247.21	1
247.24	6
249.184	2
249.227	0
249.259	0
251.191	0
254.248	1
257.223	1
259.208	2
259.238	1
261.186	0
261.222	85
262.422	0
263.237	295
265.253	18
269.22	0
271.204	0
271.241	1
271.257	0
273.207	0
273.226	0
273.258	0
275.194	0
275.237	2
277.217	2
277.255	0
279.228	1
279.242	0
280.265	0
281.222	0
283.243	2
285.216	0
285.26	0
287.233	0
287.262	0
289.216	0
289.249	2
289.266	0
289.29	0
291.233	1
291.265	0
293.247	4
295.263	0
297.246	0
299.226	1
299.24	2
301.252	3
303.227	1
303.266	1
303.279	0
303.308	0
305.249	1
307.263	0
309.241	2
311.259	86
311.298	0
312.259	0
313.27	5
313.288	0
315.232	0
315.268	1
315.307	0
317.248	21
317.286	1
318.249	0
319.263	53
319.296	0
321.282	2
323.256	0
323.288	0
325.256	0
325.273	0
327.272	0
327.3	0
329.247	0
329.286	0
331.264	1
331.293	0
331.306	0
333.243	2
333.269	0
333.289	0
335.216	0
335.26	12
337.273	122
338.28	0
339.25	0
339.288	22
341.302	0
343.274	0
343.299	0
345.268	0
345.286	0
345.309	0
345.324	0
347.295	0
349.246	0
349.274	0
351.247	0
351.271	0
353.274	0
353.312	0
355.332	0
357.279	0
357.314	0
359.294	1
359.328	1
361.262	0
361.298	0
361.318	0
361.349	0
363.252	0
365.274	1
367.302	0
367.338	0
369.308	0
371.32	0
371.357	0
373.315	0
373.331	0
373.344	1
373.36	0
375.287	0
375.33	0
375.354	0
377.264	0
377.292	0
377.346	0
379.289	0
381.315	0
383.344	0
385.312	0
385.329	0
385.351	0
387.314	0
387.329	0
387.356	1
387.375	0
389.34	0
389.368	0
391.285	2
391.359	0
393.311	0
397.334	0
397.372	0
399.328	0
399.347	0
399.36	0
399.383	0
401.337	0
401.367	1
401.385	0
403.272	0
403.365	1
405.3	0
405.36	0
411.365	0
413.338	0
413.377	0
415.35	1
415.382	0
415.398	0
417.31	0
417.348	0
417.372	0
417.389	0
419.314	0
419.339	0
419.381	0
419.394	0
421.329	0
423.359	0
425.344	0
425.382	0
427.35	0
427.37	0
427.389	0
427.405	0
429.367	1
429.39	0
431.313	0
431.36	0
431.382	0
433.333	1
435.352	0
441.362	0
441.374	0
443.385	0
445.347	0
445.405	0
447.343	0
447.365	0
449.364	1
449.382	0
451.373	0
455.37	0
457.383	0
459.362	0
459.388	0
461.343	0
461.367	1
461.403	0
463.366	0
463.386	1
465.379	0
469.378	0
475.377	2
477.387	1
479.416	1
481.424	1
481.44	1
487.373	1
489.382	1
489.405	1
497.429	4
497.446	1
499.45	15
501.388	1
501.409	1
503.416	1
507.446	2
507.465	1
515.402	1
515.416	1
515.436	1
515.452	1
517.445	2
517.461	4
517.476	1
523.454	2
525.371	0
525.465	20
529.426	1
543.476	16
545.445	1
545.469	1
547.473	13
548.452	1
549.46	1
549.484	4
551.491	2
559.467	3
561.476	1
569.696	0
571.47	384
571.676	0
571.696	1
572.463	1
572.482	1
573.371	1
573.484	999
574.11	0
574.269	1
574.493	61
574.698	28
575.049	3
575.5	449
576.5	2
577.52	2
581.49	1
581.511	1
585.467	0
585.491	3
587.49	3
587.513	2
589.475	1
589.502	1
591.5	3
597.486	148
597.625	2
597.644	1
599.378	1
599.499	936
600.512	19
601.515	134
603.534	2
613.525	1
615.501	2
615.535	1
617.506	7
617.529	2
625.516	1
645.515	1
659.513	0
671.503	0
671.536	0
671.588	0
673.524	0
673.557	0
681.552	0
683.56	0
683.616	0
685.541	0
687.529	0
687.567	0
697.618	0
699.545	0
699.601	0
701.58	0
711.635	0
713.574	0
713.611	0
715.584	0
715.613	0
717.602	0
723.615	0
725.623	0
727.553	0
727.574	0
727.594	1
727.616	0
727.632	0
729.607	0
737.626	0
741.556	0
741.59	2
741.618	2
741.645	1
743.597	0
743.648	0
751.659	0
755.61	2
755.64	1
755.663	1
761.675	0
769.597	0
769.62	1
769.646	1
769.674	0
771.646	0
779.672	0
783.648	0
797.652	0
797.675	0
811.672	0
811.716	0
817.721	0
829.723	0
829.752	0
835.713	54
846.73	0
846.758	0
851.024	0
851.05	0
851.08	0
851.102	0
853.264	0
853.723	196
854.695	0
854.714	0
854.739	0
867.974	0
868.028	1
868.077	0
869.79	0
870.614	0
870.75	108
870.823	0
871.728	0
871.759	1
872.199	0
872.295	0
873.937	0
874.452	0
