Mass spectrum: TG 52:3; LC-ESI-QTOF; MS2
Name: TG 52:3
Class:  TAG
Formula: C55H100O6
Exact mass: 857.3989999999999
SMILES: CCCCCCCCCCCCCCCC(=O)OCC(COC(=O)CCC\C=C/C\C=C/C\C=C/CCCCCCCC)OC(=O)CCCCCCCCCCCCCCC
InChI: InChI=1S/C55H100O6/c1-4-7-10-13-16-19-22-25-26-27-28-31-33-36-39-42-45-48-54(57)60-51-52(61-55(58)49-46-43-40-37-34-30-24-21-18-15-12-9-6-3)50-59-53(56)47-44-41-38-35-32-29-23-20-17-14-11-8-5-2/h25-26,28,31,36,39,52H,4-24,27,29-30,32-35,37-38,40-51H2,1-3H3/b26-25-,31-28-,39-36-
Instrument: AB Sciex TripleTOF 5600+ system (Q-TOF) equipped with a DuoSpray ion source
Instrument type: LC-ESI-QTOF
Ms type: MS2
Ion mode: POSITIVE
Collision energy: 45V
Column name: Acquity UPLC Peptide BEH C18 column (50*2.1 mm; 1.7 um; 130A)(Waters Co.,Milford, MA, USA)
Retention time: 14.52263
Precursor type: [M+NH4]+
Precursor m/z: 874.7848
Intensity: 539765
m/z	relative intensity
71.048	1
71.085	15
77.038	2
79.054	12
81.069	60
83.05	1
83.085	31
85.065	2
85.101	15
91.054	6
93.069	16
95.085	68
97.065	3
97.101	26
99.08	3
99.116	3
105.068	4
107.085	14
109.101	50
111.078	4
111.116	12
113.096	2
113.13	1
119.083	4
121.101	31
123.116	34
125.095	2
125.132	4
127.111	2
127.147	1
133.101	8
135.117	27
137.095	0
137.132	16
139.112	2
139.147	1
141.129	1
141.162	0
147.116	5
149.132	19
151.112	1
151.147	11
153.127	5
153.166	0
155.142	1
155.183	0
159.115	0
161.132	9
163.147	18
165.127	1
165.162	11
167.142	3
169.158	1
171.117	0
173.13	1
175.148	15
177.13	0
177.164	8
179.141	1
179.18	3
181.149	0
181.163	1
185.131	0
187.142	0
189.163	5
191.18	3
193.157	2
195.177	0
199.145	0
201.163	0
203.179	3
205.196	2
207.174	2
209.153	0
209.193	0
213.164	0
217.193	1
219.211	4
221.151	0
221.187	0
221.225	5
223.171	0
235.167	1
237.181	0
237.222	6
239.237	72
243.205	0
245.226	42
247.243	29
249.185	1
249.224	0
255.208	0
256.259	1
256.274	0
257.246	1
261.221	1
262.424	0
263.202	0
263.236	130
265.253	103
267.267	1
273.264	0
275.266	0
277.218	0
277.243	0
279.229	0
280.263	0
282.281	1
283.241	0
283.253	0
283.267	0
285.267	0
287.25	0
289.266	0
291.234	0
291.264	0
293.25	0
293.286	0
295.263	0
297.276	0
301.235	0
301.255	1
303.228	0
303.26	0
303.276	0
305.247	0
305.295	0
307.26	0
311.261	3
312.311	0
313.273	57
317.235	0
317.251	0
319.264	23
319.304	0
321.28	4
323.301	0
325.274	0
331.29	0
335.259	2
337.274	21
338.245	0
339.29	42
341.304	1
341.325	0
345.308	0
347.336	0
349.311	0
351.249	0
361.349	0
363.253	0
365.269	0
367.28	0
373.333	0
375.352	0
377.269	0
379.281	0
387.323	0
389.355	0
389.38	0
391.278	0
391.365	0
393.312	0
401.34	0
401.38	0
403.388	0
405.298	0
405.37	0
415.358	0
417.368	0
419.317	0
419.397	0
429.408	0
431.402	0
433.323	0
433.418	0
437.363	0
447.361	0
447.429	0
449.349	0
451.377	0
461.359	0
463.368	0
465.394	0
477.39	0
479.42	0
491.401	0
501.456	1
501.48	1
503.417	0
503.468	0
503.488	0
509.457	0
509.475	0
519.479	0
527.479	9
535.477	0
537.47	0
545.475	1
545.495	3
547.472	5
549.482	3
549.51	1
551.493	0
557.537	0
561.483	1
563.486	1
563.505	2
573.486	70
573.682	0
573.702	1
573.717	2
575.338	1
575.409	0
575.5	999
576.508	9
577.289	0
577.402	1
577.516	944
577.963	0
578.524	5
578.78	0
579.354	0
579.51	0
579.532	0
589.503	0
589.524	0
591.531	1
599.613	2
599.646	5
601.362	0
601.397	1
601.516	929
602.331	0
602.487	0
602.528	6
603.531	228
605.47	0
605.557	0
617.517	0
629.524	0
629.549	3
661.518	0
673.62	0
675.56	0
689.558	0
691.578	0
701.635	0
703.573	0
709.615	0
731.633	0
741.666	0
745.619	0
745.681	0
759.675	1
773.681	0
773.727	0
836.744	0
839.707	1
839.746	13
839.787	1
855.083	0
857.688	0
857.759	80
858.788	0
871.959	0
872.038	0
872.085	0
873.831	0
874.341	0
874.783	106
875.769	0
875.816	0
876.765	0
880.032	0
