Mass spectrum: TG 52:8; LC-ESI-QTOF; MS2
Name: TG 52:8
Class:  TAG
Formula: C55H90O6
Exact mass: 847.319
SMILES: CCCCC\C=C/C=C\CCCCCCCCC(=O)OC(COC(=O)CCCCCCC\C=C/CCCC)COC(=O)CCC\C=C/C\C=C/C\C=C/C\C=C/C\C=C/CC
InChI: InChI=1S/C55H90O6/c1-4-7-10-13-16-19-22-24-26-27-29-30-33-36-39-42-45-48-54(57)60-51-52(50-59-53(56)47-44-41-38-35-32-21-18-15-12-9-6-3)61-55(58)49-46-43-40-37-34-31-28-25-23-20-17-14-11-8-5-2/h7,10,15-20,23-26,29-30,36,39,52H,4-6,8-9,11-14,21-22,27-28,31-35,37-38,40-51H2,1-3H3/b10-7-,18-15-,19-16-,20-17-,25-23-,26-24-,30-29-,39-36-
Instrument: AB Sciex TripleTOF 5600+ system (Q-TOF) equipped with a DuoSpray ion source
Instrument type: LC-ESI-QTOF
Ms type: MS2
Ion mode: POSITIVE
Collision energy: 45V
Column name: Acquity UPLC Peptide BEH C18 column (50*2.1 mm; 1.7 um; 130A)(Waters Co.,Milford, MA, USA)
Retention time: 13.61963
Precursor type: [M+NH4]+
Precursor m/z: 864.7051
Intensity: 2953
m/z	relative intensity
79.053	32
81.069	38
95.086	45
109.101	89
159.115	27
183.174	84
199.149	38
201.169	32
211.149	32
227.178	27
257.22	40
263.237	53
279.228	38
283.235	12
285.242	12
293.228	51
311.235	103
313.261	38
313.269	32
313.277	25
313.283	51
329.235	12
337.275	32
367.271	21
433.336	12
519.421	204
519.438	999
519.453	152
545.461	37
551.501	116
563.471	32
565.465	32
567.445	188
573.491	35
577.511	115
591.493	299
591.521	32
593.468	25
595.461	38
619.476	71
623.498	117
647.49	181
647.508	32
647.515	51
647.534	53
782.567	12
795.639	104
795.659	137
805.64	19
829.693	12
847.679	58
864.669	78
864.707	117
864.719	71
864.74	51
864.76	25
