Mass spectrum: TG 46:3; LC-ESI-QTOF; MS2
Name: TG 46:3
Class:  TAG
Formula: C49H88O6
Exact mass: 773.237
SMILES: CCCCCCCCCCCC(=O)OCC(COC(=O)CCCCCCCC\C=C/C=C\CCCCC)OC(=O)CCCCC\C=C/CCCCCCCC
InChI: InChI=1S/C49H88O6/c1-4-7-10-13-16-19-21-23-24-26-27-30-33-36-39-42-48(51)54-45-46(44-53-47(50)41-38-35-32-29-18-15-12-9-6-3)55-49(52)43-40-37-34-31-28-25-22-20-17-14-11-8-5-2/h16,19,21,23,25,28,46H,4-15,17-18,20,22,24,26-27,29-45H2,1-3H3/b19-16-,23-21-,28-25-
Instrument: AB Sciex TripleTOF 5600+ system (Q-TOF) equipped with a DuoSpray ion source
Instrument type: LC-ESI-QTOF
Ms type: MS2
Ion mode: POSITIVE
Collision energy: 45V
Column name: Acquity UPLC Peptide BEH C18 column (50*2.1 mm; 1.7 um; 130A)(Waters Co.,Milford, MA, USA)
Retention time: 13.71359
Precursor type: [M+NH4]+
Precursor m/z: 790.6888
Intensity: 1030
m/z	relative intensity
71.084	19
81.069	54
83.085	16
93.071	19
95.083	50
97.098	14
109.1	35
121.102	32
123.119	27
135.116	25
155.143	16
163.144	22
175.147	20
183.18	22
211.209	16
219.211	18
237.213	16
237.223	30
245.227	17
257.209	14
263.238	71
265.257	29
283.217	8
285.241	6
286.017	3
292.97	3
311.265	27
313.27	24
319.255	16
319.276	4
337.271	19
339.294	6
359.021	4
360.05	3
390.989	4
426.875	3
443.386	3
447.347	3
461.937	3
463.377	6
491.392	80
491.41	189
493.423	999
493.48	9
495.445	16
517.397	9
517.423	72
517.44	44
519.415	84
519.438	562
519.456	189
519.492	14
521.442	14
521.471	16
545.453	155
545.475	66
547.467	273
547.495	52
549.48	34
549.498	21
573.481	522
573.507	91
575.507	119
601.503	115
601.526	203
601.554	40
603.523	14
603.547	17
685.409	27
685.437	37
685.461	27
755.67	5
773.638	14
773.694	19
790.459	3
790.598	8
790.666	14
790.684	62
790.713	47
