Mass spectrum: TG 46:4; LC-ESI-QTOF; MS2
Name: TG 46:4
Class:  TAG
Formula: C49H86O6
Exact mass: 771.221
SMILES: CCCCCCCC\C=C/CCCCCC(=O)OCC(COC(=O)CCCCC\C=C/C=C\CCCC)OC(=O)CCCCC\C=C/CCCCCCCC
InChI: InChI=1S/C49H86O6/c1-4-7-10-13-16-19-22-24-27-30-33-36-39-42-48(51)54-45-46(44-53-47(50)41-38-35-32-29-26-21-18-15-12-9-6-3)55-49(52)43-40-37-34-31-28-25-23-20-17-14-11-8-5-2/h15,18,21,24-28,46H,4-14,16-17,19-20,22-23,29-45H2,1-3H3/b18-15-,26-21-,27-24-,28-25-
Instrument: AB Sciex TripleTOF 5600+ system (Q-TOF) equipped with a DuoSpray ion source
Instrument type: LC-ESI-QTOF
Ms type: MS2
Ion mode: POSITIVE
Collision energy: 45V
Column name: Acquity UPLC Peptide BEH C18 column (50*2.1 mm; 1.7 um; 130A)(Waters Co.,Milford, MA, USA)
Retention time: 13.49518
Precursor type: [M+NH4]+
Precursor m/z: 788.6732
Intensity: 2253
m/z	relative intensity
81.071	45
93.071	16
95.086	70
107.083	17
109.098	21
109.106	11
121.101	16
123.115	11
135.12	14
155.143	28
163.149	23
175.147	12
177.163	11
184.074	18
186.999	11
207.177	21
226.987	12
229.178	14
245.224	26
261.218	21
263.237	89
285.233	7
311.257	9
317.25	7
319.258	16
337.267	31
337.289	11
339.291	7
345.295	5
489.39	65
489.41	21
491.406	999
493.422	70
517.424	62
517.44	33
519.439	28
543.441	28
545.457	50
547.449	14
547.476	36
571.471	45
573.465	19
573.499	33
599.478	139
599.51	332
601.503	31
601.52	24
601.537	18
615.516	12
753.629	7
771.612	14
771.655	43
771.69	14
788.653	34
788.687	60
788.72	14
