Mass spectrum: TG 54:7; LC-ESI-QTOF; MS2
Name: TG 54:7
Class:  TAG
Formula: C57H96O6
Exact mass: 877.389
SMILES: CCCCCCCCCCCCCCCC(=O)OCC(COC(=O)CCC\C=C/C\C=C/C\C=C/C\C=C/C\C=C/CC)OC(=O)CCCCCCCC\C=C/C=C\CCCCC
InChI: InChI=1S/C57H96O6/c1-4-7-10-13-16-19-22-25-27-28-30-32-35-38-41-44-47-50-56(59)62-53-54(52-61-55(58)49-46-43-40-37-34-31-24-21-18-15-12-9-6-3)63-57(60)51-48-45-42-39-36-33-29-26-23-20-17-14-11-8-5-2/h7,10,16-17,19-20,23,25-27,30,32,38,41,54H,4-6,8-9,11-15,18,21-22,24,28-29,31,33-37,39-40,42-53H2,1-3H3/b10-7-,19-16-,20-17-,26-23-,27-25-,32-30-,41-38-
Instrument: AB Sciex TripleTOF 5600+ system (Q-TOF) equipped with a DuoSpray ion source
Instrument type: LC-ESI-QTOF
Ms type: MS2
Ion mode: POSITIVE
Collision energy: 45V
Column name: Acquity UPLC Peptide BEH C18 column (50*2.1 mm; 1.7 um; 130A)(Waters Co.,Milford, MA, USA)
Retention time: 13.96906
Precursor type: [M+NH4]+
Precursor m/z: 894.7535
Intensity: 5722
m/z	relative intensity
79.052	9
79.059	9
81.069	25
91.053	14
93.069	11
95.086	29
97.1	8
107.083	9
109.101	17
119.083	14
121.099	16
123.117	14
131.088	12
133.098	11
135.116	14
137.131	10
145.101	7
161.134	11
163.149	8
171.116	16
173.133	7
175.147	15
185.133	15
187.148	12
189.157	9
199.145	11
201.163	16
203.179	72
237.222	26
241.193	11
245.228	16
259.206	11
259.241	14
261.221	14
263.236	30
269.216	22
269.228	71
283.245	3
285.229	7
287.237	116
293.234	3
295.234	4
309.241	3
311.256	69
312.256	3
313.273	31
317.245	5
319.261	8
335.256	16
337.253	5
337.276	70
339.282	9
343.251	4
343.272	3
361.272	5
365.273	3
367.28	4
391.271	3
545.459	6
547.447	6
547.489	11
549.475	15
551.492	6
571.458	4
571.69	4
572.475	4
573.487	999
574.482	48
574.506	27
574.53	5
575.488	97
575.511	74
577.505	11
595.477	10
597.482	153
597.507	30
599.478	26
599.493	63
599.513	80
600.534	10
601.49	26
601.514	39
601.535	13
621.456	6
621.493	62
623.476	52
623.501	176
625.531	10
649.518	13
711.625	2
765.617	1
793.694	1
811.666	1
812.652	4
812.686	10
812.73	3
837.762	3
847.678	1
852.707	4
855.726	15
855.758	5
859.71	9
859.746	7
872.734	13
872.769	11
873.691	6
876.711	4
877.716	47
877.736	31
877.759	14
878.723	1
891.938	1
894.708	18
894.743	160
894.776	59
894.815	7
895.738	5
