Mass spectrum: TG 56:2; LC-ESI-QTOF; MS2
Name: TG 56:2
Class:  TAG
Formula: C59H110O6
Exact mass: 915.523
SMILES: CCCCCCCCCCCCCCCC(=O)OCC(COC(=O)CCCCCCCCC\C=C/CCCCCCCCCC)OC(=O)CCCCCCCCC\C=C/CCCCCC
InChI: InChI=1S/C59H110O6/c1-4-7-10-13-16-19-22-25-27-28-29-30-32-34-37-40-43-46-49-52-58(61)64-55-56(54-63-57(60)51-48-45-42-39-36-33-24-21-18-15-12-9-6-3)65-59(62)53-50-47-44-41-38-35-31-26-23-20-17-14-11-8-5-2/h20,23,28-29,56H,4-19,21-22,24-27,30-55H2,1-3H3/b23-20-,29-28-
Instrument: AB Sciex TripleTOF 5600+ system (Q-TOF) equipped with a DuoSpray ion source
Instrument type: LC-ESI-QTOF
Ms type: MS2
Ion mode: POSITIVE
Collision energy: 45V
Column name: Acquity UPLC Peptide BEH C18 column (50*2.1 mm; 1.7 um; 130A)(Waters Co.,Milford, MA, USA)
Retention time: 15.62549
Precursor type: [M+NH4]+
Precursor m/z: 932.8601
Intensity: 27408
m/z	relative intensity
71.084	2
79.053	2
81.069	14
83.084	11
85.101	5
93.073	2
95.085	18
97.065	1
97.1	10
99.115	1
107.085	2
109.1	10
111.082	1
111.114	5
121.098	5
123.114	6
125.13	1
127.111	1
135.118	7
137.131	4
141.126	0
149.131	3
149.139	1
151.148	2
153.125	1
163.149	2
165.166	2
167.137	1
177.162	2
179.171	1
179.183	1
191.179	2
209.189	1
221.231	1
239.237	9
247.241	12
263.237	2
265.253	39
267.269	7
275.272	3
277.291	1
282.28	1
293.281	15
293.293	3
295.29	1
303.304	3
313.273	4
321.273	1
321.314	11
337.276	0
339.285	7
339.302	2
341.303	3
349.309	1
349.347	0
367.319	6
369.334	2
369.35	0
377.337	1
395.336	1
395.354	3
549.481	10
549.499	7
551.488	1
557.537	1
559.545	1
573.506	0
575.496	23
575.709	1
577.516	346
578.495	1
578.526	4
579.554	1
585.57	1
587.581	0
589.511	0
591.533	0
599.49	1
599.512	0
601.504	1
601.532	0
603.532	199
603.648	1
604.525	1
604.564	0
605.546	589
606.518	1
606.552	7
607.569	4
607.601	1
617.537	1
617.565	1
619.552	1
627.512	2
627.532	11
629.539	3
629.567	0
629.591	1
631.562	506
631.707	0
632.566	3
632.6	1
633.444	0
633.578	999
633.643	0
634.552	1
634.572	7
634.593	3
635.591	18
645.576	0
655.539	1
655.562	3
655.595	1
657.519	1
659.594	360
660.561	0
660.58	1
660.601	1
660.63	0
661.577	2
661.59	4
661.613	11
661.644	3
673.604	0
683.586	0
687.618	4
687.653	1
689.63	0
850.69	0
897.802	1
897.828	2
897.861	1
911.801	148
912.785	1
912.814	1
912.868	0
915.785	2
915.808	4
915.833	13
915.859	4
929.936	0
932.729	1
932.862	199
933.819	0
933.86	2
933.906	1
