Mass spectrum: TG 49:0; LC-ESI-QTOF; MS2
Name: TG 49:0
Class:  TAG
Formula: C52H100O6
Exact mass: 821.366
SMILES: CCCCCCCCCCCCCCCCC(=O)OCC(COC(=O)CCCCCCCCCCCCCCC)OC(=O)CCCCCCCCCCCCCCC
InChI: InChI=1S/C52H100O6/c1-4-7-10-13-16-19-22-25-28-30-33-36-39-42-45-51(54)57-48-49(58-52(55)46-43-40-37-34-31-27-24-21-18-15-12-9-6-3)47-56-50(53)44-41-38-35-32-29-26-23-20-17-14-11-8-5-2/h49H,4-48H2,1-3H3
Instrument: AB Sciex TripleTOF 5600+ system (Q-TOF) equipped with a DuoSpray ion source
Instrument type: LC-ESI-QTOF
Ms type: MS2
Ion mode: POSITIVE
Collision energy: 45V
Column name: Acquity UPLC Peptide BEH C18 column (50*2.1 mm; 1.7 um; 130A)(Waters Co.,Milford, MA, USA)
Retention time: 14.94494
Precursor type: [M+NH4]+
Precursor m/z: 838.7855
Intensity: 11446
m/z	relative intensity
71.084	13
81.068	11
83.086	7
85.099	12
95.082	14
97.101	10
99.117	5
109.098	9
109.108	4
111.119	4
123.116	8
125.129	3
137.135	8
151.144	4
165.167	4
221.225	9
235.241	3
239.235	54
253.244	8
253.257	10
292.954	1
299.25	1
313.272	8
327.289	4
400.903	1
448.927	1
523.473	14
537.489	94
537.526	2
549.793	5
551.503	525
552.51	2
563.767	5
565.519	999
566.525	4
579.508	5
579.514	10
579.531	32
579.551	24
593.543	7
603.502	4
603.523	3
603.534	6
603.555	9
838.726	8
838.76	12
838.8	29
