Mass spectrum: TG 62:14; LC-ESI-QTOF; MS2
Name: TG 62:14
Class:  TAG
Formula: C65H98O6
Exact mass: 975.4929999999999
SMILES: CCCCC\C=C/C=C\CCCCCCCCC(=O)OCC(COC(=O)CC\C=C/C\C=C/C\C=C/C\C=C/C\C=C/C\C=C/CC)OC(=O)CC\C=C/C\C=C/C\C=C/C\C=C/C\C=C/C\C=C/CC
InChI: InChI=1S/C65H98O6/c1-4-7-10-13-16-19-22-25-28-30-32-34-37-40-43-46-49-52-55-58-64(67)70-61-62(60-69-63(66)57-54-51-48-45-42-39-36-27-24-21-18-15-12-9-6-3)71-65(68)59-56-53-50-47-44-41-38-35-33-31-29-26-23-20-17-14-11-8-5-2/h7-8,10-11,16-21,24-29,32-35,40-41,43-44,49-50,52-53,62H,4-6,9,12-15,22-23,30-31,36-39,42,45-48,51,54-61H2,1-3H3/b10-7-,11-8-,19-16-,20-17-,21-18-,27-24-,28-25-,29-26-,34-32-,35-33-,43-40-,44-41-,52-49-,53-50-
Instrument: AB Sciex TripleTOF 5600+ system (Q-TOF) equipped with a DuoSpray ion source
Instrument type: LC-ESI-QTOF
Ms type: MS2
Ion mode: POSITIVE
Collision energy: 45V
Column name: Acquity UPLC Peptide BEH C18 column (50*2.1 mm; 1.7 um; 130A)(Waters Co.,Milford, MA, USA)
Retention time: 13.84894
Precursor type: [M+NH4]+
Precursor m/z: 992.7654
Intensity: 45095
m/z	relative intensity
77.038	2
79.054	12
81.07	16
83.085	2
91.054	18
93.069	11
95.085	14
97.064	2
97.101	2
105.069	9
107.085	9
109.101	9
117.068	7
119.085	11
121.1	9
123.117	7
129.068	6
131.085	11
133.101	10
135.081	1
135.117	6
137.132	2
141.07	2
143.085	5
145.1	9
147.082	1
147.117	7
149.094	2
149.131	3
155.085	4
157.098	8
159.116	10
161.094	1
161.132	11
163.146	6
167.087	2
169.099	9
171.116	15
173.095	1
173.132	11
175.11	1
175.147	8
177.163	2
181.101	7
183.117	9
185.132	11
187.111	3
187.147	7
189.127	3
189.164	4
195.117	6
197.132	8
199.111	1
199.146	10
201.128	2
201.164	15
203.144	2
203.178	2
207.116	1
209.131	7
209.143	1
211.147	13
213.163	11
215.141	2
215.178	8
223.146	10
225.164	6
227.14	2
227.18	10
229.157	2
229.193	1
237.167	4
239.177	2
241.157	4
241.191	1
245.226	4
249.164	1
251.178	3
253.197	3
263.182	2
263.236	13
265.195	3
267.209	5
269.225	7
275.181	1
279.223	0
281.186	0
281.233	1
283.204	1
283.242	4
289.195	1
291.211	4
293.227	33
295.243	2
307.214	0
309.208	1
309.221	3
309.239	1
311.238	38
319.262	4
327.227	0
335.27	0
337.273	52
349.252	0
365.274	0
367.261	5
383.256	0
383.269	1
385.271	13
385.294	1
391.285	4
439.276	1
473.353	0
483.345	0
485.367	0
499.378	0
511.359	0
523.381	0
525.386	1
533.367	0
537.374	0
539.388	0
555.452	1
569.453	0
573.46	3
591.464	0
617.449	0
619.476	0
621.459	1
639.478	0
643.478	0
645.461	1
645.482	3
645.511	1
647.404	0
647.5	999
649.496	3
661.522	0
665.52	0
671.491	0
675.545	0
677.498	0
683.452	0
693.313	0
693.47	0
695.44	0
695.5	84
696.491	0
696.532	0
697.503	0
699.51	0
711.467	0
711.49	0
711.514	0
713.499	0
713.541	0
731.514	0
755.591	0
785.567	0
797.621	0
799.586	0
811.585	0
813.601	0
823.603	0
839.611	0
849.652	0
851.618	0
853.634	0
865.615	0
865.67	0
867.656	0
879.605	0
891.672	0
893.67	1
897.667	5
897.688	13
897.711	9
897.765	0
898.707	0
905.629	0
905.674	0
910.685	0
910.741	0
924.704	0
933.715	0
957.724	3
957.755	1
975.676	0
975.74	46
975.828	0
976.746	0
989.664	0
992.663	0
992.768	207
992.85	0
993.722	0
993.761	10
993.799	3
