Mass spectrum: ChE 20:3; LC-ESI-QTOF; MS2
Name: ChE 20:3
Class:  CE
Formula: C47H78O2
Exact mass: 675.139
SMILES: CCCCC\C=C/C\C=C/C\C=C/CCCCCCC(=O)O[C@H]1CC[C@]2(C)[C@H]3CC[C@]4(C)[C@H](CC[C@H]4[C@@H]3CC=C2C1)[C@H](C)CCCC(C)C
InChI: InChI=1S/C47H78O2/c1-7-8-9-10-11-12-13-14-15-16-17-18-19-20-21-22-23-27-45(48)49-40-32-34-46(5)39(36-40)28-29-41-43-31-30-42(38(4)26-24-25-37(2)3)47(43,6)35-33-44(41)46/h11-12,14-15,17-18,28,37-38,40-44H,7-10,13,16,19-27,29-36H2,1-6H3/b12-11-,15-14-,18-17-/t38-,40+,41+,42-,43+,44+,46+,47-/m1/s1
Instrument: AB Sciex TripleTOF 5600+ system (Q-TOF) equipped with a DuoSpray ion source
Instrument type: LC-ESI-QTOF
Ms type: MS2
Ion mode: POSITIVE
Collision energy: 45V
Column name: Acquity UPLC Peptide BEH C18 column (50*2.1 mm; 1.7 um; 130A)(Waters Co.,Milford, MA, USA)
Retention time: 14.62495
Precursor type: [M+NH4]+
Precursor m/z: 692.6318
Intensity: 9100
m/z	relative intensity
71.085	5
79.052	5
81.068	16
83.085	10
85.099	3
91.053	5
93.068	6
95.085	22
97.099	9
105.069	9
107.084	10
109.1	26
111.115	11
119.085	9
121.1	18
123.115	13
125.13	7
133.099	12
135.116	35
137.133	4
145.103	3
147.116	55
149.13	20
151.15	7
159.119	7
161.131	76
163.147	17
165.163	12
173.136	8
175.147	60
177.162	9
179.178	21
187.142	7
187.153	5
189.162	32
191.177	8
193.196	10
201.164	23
203.179	33
205.193	14
207.212	9
215.177	41
217.194	27
219.209	16
221.228	4
229.196	27
231.21	3
233.225	26
235.24	8
241.195	4
243.209	53
245.225	12
247.238	21
247.251	10
255.211	4
257.223	33
259.243	49
261.255	14
271.238	4
273.257	26
275.28	2
285.254	4
287.273	35
299.275	6
305.251	4
313.283	8
313.301	4
327.31	4
341.322	1
368.202	3
369.267	1
369.351	999
370.353	5
371.343	0
371.369	7
456.967	1
634.547	0
674.506	0
675.612	1
692.484	0
