Mass spectrum: TG 56:10; LC-ESI-QTOF; MS2
Name: TG 56:10
Class:  TAG
Formula: C59H94O6
Exact mass: 899.395
SMILES: CCCCC\C=C/C=C\CCCCCCCCC(=O)OCC(COC(=O)CCC\C=C/C\C=C/C\C=C/C\C=C/C\C=C/CC)OC(=O)CCCCCCCCC\C=C/C=C\C=C/CC
InChI: InChI=1S/C59H94O6/c1-4-7-10-13-16-19-22-25-28-29-32-34-37-40-43-46-49-52-58(61)64-55-56(65-59(62)53-50-47-44-41-38-35-31-27-24-21-18-15-12-9-6-3)54-63-57(60)51-48-45-42-39-36-33-30-26-23-20-17-14-11-8-5-2/h7,9-10,12,15-21,23-26,28,32,34,40,43,56H,4-6,8,11,13-14,22,27,29-31,33,35-39,41-42,44-55H2,1-3H3/b10-7-,12-9-,18-15-,19-16-,20-17-,24-21-,26-23-,28-25-,34-32-,43-40-
Instrument: AB Sciex TripleTOF 5600+ system (Q-TOF) equipped with a DuoSpray ion source
Instrument type: LC-ESI-QTOF
Ms type: MS2
Ion mode: POSITIVE
Collision energy: 45V
Column name: Acquity UPLC Peptide BEH C18 column (50*2.1 mm; 1.7 um; 130A)(Waters Co.,Milford, MA, USA)
Retention time: 13.71013
Precursor type: [M+NH4]+
Precursor m/z: 916.7369
Intensity: 30982
m/z	relative intensity
77.038	4
79.054	20
81.07	31
83.084	7
85.064	2
91.054	20
93.07	23
95.085	39
97.065	4
97.101	6
99.079	3
105.069	14
107.085	16
109.101	21
111.079	3
117.069	14
119.085	19
121.101	27
123.081	2
123.117	13
129.069	7
131.085	21
133.101	20
135.116	26
137.095	2
137.131	5
143.085	7
145.101	17
147.117	12
149.093	2
149.131	11
151.145	2
155.084	3
157.099	6
157.107	3
159.117	23
161.132	19
163.111	3
163.147	15
165.127	2
165.164	2
169.101	9
171.117	16
173.132	31
175.11	3
175.148	21
177.129	3
177.165	5
179.146	2
181.161	2
183.117	10
185.133	23
187.147	22
189.134	2
189.164	11
193.159	2
197.132	15
199.148	18
201.127	5
201.164	76
203.146	4
203.179	6
205.158	2
209.131	3
211.148	13
213.163	7
215.143	5
215.175	3
217.195	2
223.149	2
225.163	11
227.183	2
229.156	3
239.181	7
241.195	7
243.212	21
245.224	10
245.235	4
247.245	2
257.191	4
257.225	4
259.206	6
261.221	41
263.238	35
265.194	7
265.254	6
267.21	63
269.231	3
277.214	6
279.232	13
281.192	1
283.204	10
285.221	63
287.238	4
293.224	2
299.232	1
299.256	1
301.256	1
309.226	1
311.23	2
311.246	5
311.264	3
315.223	1
317.248	12
319.265	7
333.239	3
335.258	81
337.275	127
339.289	20
341.229	1
341.25	4
353.263	1
357.238	2
359.256	6
361.274	1
389.261	1
389.286	2
391.279	5
393.301	1
447.359	1
461.372	1
475.375	4
477.387	4
477.409	1
479.367	1
483.347	1
491.367	4
491.39	4
493.388	3
493.405	2
497.375	1
511.367	1
513.407	1
517.414	2
517.434	3
519.439	2
523.445	2
523.465	1
525.467	1
527.414	2
527.435	1
529.44	2
533.422	1
541.468	1
542.423	2
543.433	1
545.434	4
547.454	4
555.428	1
569.454	3
571.47	65
571.496	9
572.473	1
573.494	3
577.509	1
589.473	3
589.494	3
595.44	3
595.474	18
595.613	1
597.487	999
598.487	8
598.515	3
599.501	62
600.508	1
601.497	26
601.52	81
603.535	114
605.542	3
605.563	2
615.492	29
615.525	7
617.452	3
617.512	171
619.471	228
619.53	43
619.568	2
620.472	2
621.486	270
622.495	3
623.492	5
623.512	8
635.48	1
637.471	3
637.497	2
639.503	2
643.536	4
645.481	10
645.502	5
647.504	5
649.508	1
671.502	1
671.54	0
691.547	0
701.602	0
719.559	0
747.576	0
749.565	0
751.599	0
757.623	1
759.604	0
771.581	0
773.587	0
773.624	1
773.645	1
775.572	0
777.598	1
783.65	0
786.593	0
786.653	0
787.609	0
789.584	1
789.639	1
791.604	0
799.69	1
801.603	0
801.64	0
803.617	1
815.616	0
815.656	1
817.642	1
823.642	6
823.667	35
823.701	6
823.728	1
829.615	0
829.656	1
833.658	0
834.62	1
834.65	1
834.68	2
834.715	0
843.66	0
847.689	0
857.659	0
863.747	2
881.674	3
881.705	7
881.737	9
881.763	11
881.782	6
898.727	0
898.789	0
899.545	0
899.707	119
899.782	10
899.814	1
900.724	1
900.77	0
913.887	0
916.564	1
916.664	1
916.739	313
916.831	2
917.731	4
917.771	1
