Mass spectrum: TG 54:2; LC-ESI-QTOF; MS2
Name: TG 54:2
Class:  TAG
Formula: C57H106O6
Exact mass: 887.4689999999999
SMILES: CCCCCCCCCCCCCCCCCC(=O)OCC(COC(=O)CCCCCCCCC\C=C/CCCCCC)OC(=O)CCCCCCCCC\C=C/CCCCCC
InChI: InChI=1S/C57H106O6/c1-4-7-10-13-16-19-22-25-28-31-34-37-40-43-46-49-55(58)61-52-54(63-57(60)51-48-45-42-39-36-33-30-27-24-21-18-15-12-9-6-3)53-62-56(59)50-47-44-41-38-35-32-29-26-23-20-17-14-11-8-5-2/h19,21-22,24,54H,4-18,20,23,25-53H2,1-3H3/b22-19-,24-21-
Instrument: AB Sciex TripleTOF 5600+ system (Q-TOF) equipped with a DuoSpray ion source
Instrument type: LC-ESI-QTOF
Ms type: MS2
Ion mode: POSITIVE
Collision energy: 45V
Column name: Acquity UPLC Peptide BEH C18 column (50*2.1 mm; 1.7 um; 130A)(Waters Co.,Milford, MA, USA)
Retention time: 15.19603
Precursor type: [M+NH4]+
Precursor m/z: 904.8325
Intensity: 13569
m/z	relative intensity
71.084	4
79.054	2
81.069	13
83.085	8
85.1	5
91.054	1
93.069	2
95.085	16
97.1	7
97.107	2
99.081	1
99.117	1
107.087	2
109.101	12
111.117	4
121.095	1
121.102	5
123.116	7
125.131	1
135.118	5
137.132	2
149.131	3
151.147	3
161.136	1
163.15	3
165.164	2
175.147	1
177.161	2
179.178	1
189.165	1
191.182	1
193.196	1
239.231	2
245.227	4
247.241	11
249.254	1
263.236	13
265.253	42
267.268	13
268.995	1
275.274	1
282.278	1
284.284	0
284.304	1
291.27	1
293.282	2
293.295	0
295.299	1
301.265	0
313.265	1
313.281	1
319.265	3
321.279	1
323.297	1
337.277	1
339.291	8
341.306	16
344.982	0
367.313	0
369.339	1
529.507	1
549.481	1
559.551	0
575.499	35
575.554	1
576.521	1
577.517	102
577.572	1
578.525	1
579.506	1
579.534	3
579.555	1
601.655	1
603.426	1
603.533	937
604.515	3
604.535	18
604.56	4
605.234	0
605.548	999
606.047	0
606.529	3
606.553	17
606.584	3
607.565	180
608.558	2
608.584	2
629.588	0
631.565	136
632.559	1
632.588	1
633.569	2
633.593	2
633.611	0
659.601	1
818.914	0
869.778	2
869.837	0
870.8	0
883.769	0
887.757	1
887.805	9
887.86	1
888.787	0
901.977	0
904.833	117
905.789	0
905.817	2
905.855	2
905.925	0
