Mass spectrum: TG 54:7; LC-ESI-QTOF; MS2
Name: TG 54:7
Class:  TAG
Formula: C57H96O6
Exact mass: 877.389
SMILES: CCCCCCCCCCCCCCCC(=O)OCC(COC(=O)CCC\C=C/C\C=C/C\C=C/C\C=C/C\C=C/CC)OC(=O)CCCCCCCC\C=C/C=C\CCCCC
InChI: InChI=1S/C57H96O6/c1-4-7-10-13-16-19-22-25-27-28-30-32-35-38-41-44-47-50-56(59)62-53-54(52-61-55(58)49-46-43-40-37-34-31-24-21-18-15-12-9-6-3)63-57(60)51-48-45-42-39-36-33-29-26-23-20-17-14-11-8-5-2/h7,10,16-17,19-20,23,25-27,30,32,38,41,54H,4-6,8-9,11-15,18,21-22,24,28-29,31,33-37,39-40,42-53H2,1-3H3/b10-7-,19-16-,20-17-,26-23-,27-25-,32-30-,41-38-
Instrument: AB Sciex TripleTOF 5600+ system (Q-TOF) equipped with a DuoSpray ion source
Instrument type: LC-ESI-QTOF
Ms type: MS2
Ion mode: POSITIVE
Collision energy: 45V
Column name: Acquity UPLC Peptide BEH C18 column (50*2.1 mm; 1.7 um; 130A)(Waters Co.,Milford, MA, USA)
Retention time: 14.02859
Precursor type: [M+NH4]+
Precursor m/z: 894.7518
Intensity: 34572
m/z	relative intensity
71.085	5
77.038	2
79.055	10
81.069	24
83.084	9
85.064	3
85.098	3
91.054	14
93.07	10
95.084	28
97.064	3
97.099	5
105.069	8
107.086	9
109.099	12
117.069	11
119.085	14
121.099	11
123.115	10
129.069	8
131.084	11
133.1	12
135.118	7
137.128	3
141.069	2
143.085	4
145.1	12
147.117	7
149.131	6
151.146	2
155.086	3
157.099	9
159.117	16
161.095	2
161.132	12
163.11	3
163.148	8
169.099	7
171.116	14
173.132	17
175.147	18
177.126	2
177.164	2
183.117	11
185.131	20
187.148	18
189.128	4
189.162	8
197.132	12
199.146	13
201.123	4
201.163	67
203.142	5
203.179	3
211.146	13
213.163	5
215.144	3
217.158	2
225.161	11
237.223	4
239.176	3
239.237	21
241.196	3
243.215	5
245.225	10
247.242	2
257.222	3
257.236	3
261.224	3
263.234	20
263.246	5
265.198	3
267.21	74
269.225	3
279.218	1
281.194	0
283.21	5
285.22	81
287.24	1
297.276	1
301.247	1
311.259	12
313.273	95
317.244	1
319.263	5
321.212	0
323.239	1
335.249	1
335.274	1
336.24	1
337.272	90
339.287	10
339.309	1
341.232	2
341.251	5
357.245	1
359.26	3
367.284	3
391.282	4
391.312	1
393.287	1
423.332	0
437.357	1
459.349	1
461.358	1
463.39	1
473.364	1
499.39	1
501.47	1
505.439	1
523.436	1
529.416	1
529.447	2
531.445	1
547.443	1
547.462	6
549.469	1
565.462	1
569.459	1
573.476	7
573.501	5
573.694	1
573.721	1
575.502	999
576.468	1
576.508	2
577.507	4
577.532	4
593.525	1
595.466	23
595.491	4
595.517	1
597.44	3
597.488	155
597.541	1
599.48	1
599.507	4
599.525	1
601.524	1
613.458	1
613.5	1
615.501	2
621.488	242
621.542	1
623.46	2
623.484	13
623.508	21
625.521	1
637.486	1
639.505	1
649.514	1
727.612	0
741.594	0
755.611	1
767.617	0
781.658	0
793.665	0
795.661	0
807.618	0
807.654	1
811.642	2
811.667	12
811.7	6
811.746	0
835.71	0
859.672	0
859.701	2
859.731	4
859.765	1
875.711	0
877.726	83
878.731	0
891.96	0
894.669	1
894.685	1
894.75	174
894.784	33
894.82	1
895.73	0
