Mass spectrum: TG 58:4; LC-ESI-QTOF; MS2
Name: TG 58:4
Class:  TAG
Formula: C61H110O6
Exact mass: 939.545
SMILES: CCCCCCCCCC\C=C/CCCCCCCCCC(=O)OCC(COC(=O)CCCCCCCCC\C=C/CCCCCC)OC(=O)CCCCCCCC\C=C/C=C\CCCCC
InChI: InChI=1S/C61H110O6/c1-4-7-10-13-16-19-22-25-28-29-30-31-34-36-39-42-45-48-51-54-60(63)66-57-58(67-61(64)55-52-49-46-43-40-37-33-27-24-21-18-15-12-9-6-3)56-65-59(62)53-50-47-44-41-38-35-32-26-23-20-17-14-11-8-5-2/h18,20-21,23-24,27,29-30,58H,4-17,19,22,25-26,28,31-57H2,1-3H3/b21-18-,23-20-,27-24-,30-29-
Instrument: AB Sciex TripleTOF 5600+ system (Q-TOF) equipped with a DuoSpray ion source
Instrument type: LC-ESI-QTOF
Ms type: MS2
Ion mode: POSITIVE
Collision energy: 45V
Column name: Acquity UPLC Peptide BEH C18 column (50*2.1 mm; 1.7 um; 130A)(Waters Co.,Milford, MA, USA)
Retention time: 15.29309
Precursor type: [M+NH4]+
Precursor m/z: 956.8599
Intensity: 24534
m/z	relative intensity
71.086	1
79.053	5
81.07	21
83.085	13
85.101	2
91.055	2
93.069	5
95.085	23
97.065	1
97.1	17
99.08	2
105.07	2
107.088	5
109.101	14
111.117	5
113.095	1
119.082	2
121.1	9
121.107	2
123.116	11
133.1	2
135.116	12
137.132	5
147.119	2
149.13	4
149.138	3
151.145	3
153.127	2
161.133	4
163.148	8
165.164	4
175.148	4
177.163	3
179.18	2
189.163	2
191.179	2
205.197	1
245.226	18
247.24	8
247.254	2
261.221	2
263.237	50
265.252	29
273.261	1
275.274	5
277.255	0
291.257	1
291.268	1
293.284	19
301.258	1
303.303	7
313.276	0
319.249	2
319.266	12
319.303	1
321.275	2
321.314	35
323.294	0
335.257	1
337.273	10
339.28	8
339.296	12
347.299	1
347.329	1
349.313	1
349.344	1
365.262	0
365.31	1
367.318	9
367.338	2
375.33	1
377.342	4
379.356	0
393.314	1
395.326	2
395.35	20
397.363	1
423.391	1
491.41	1
509.469	1
527.478	2
555.5	2
555.54	1
573.449	1
573.485	29
575.481	2
575.504	14
575.539	1
577.516	2
579.517	1
583.543	4
583.564	1
585.563	1
593.55	1
595.569	1
599.493	9
599.513	9
599.607	1
599.67	1
601.518	964
602.491	1
602.506	1
602.525	9
603.516	11
603.539	22
603.576	1
605.546	1
608.567	1
615.523	1
615.556	1
617.542	1
621.571	1
627.523	2
627.551	1
629.549	529
629.616	1
630.534	3
630.565	2
631.564	40
633.565	1
643.556	1
643.58	1
645.566	1
655.498	1
655.526	1
655.543	3
655.566	2
655.586	1
657.58	932
658.547	1
658.572	4
658.591	7
659.596	999
660.597	16
660.631	2
671.6	1
673.584	1
673.608	1
675.547	0
675.606	0
683.588	13
683.621	4
685.599	11
685.62	12
685.637	6
686.617	0
687.634	1
689.582	0
699.625	0
701.572	0
703.567	0
713.64	0
729.6	0
741.663	0
745.618	0
785.665	0
827.725	0
827.769	0
841.746	1
855.779	0
871.752	1
871.778	0
874.783	0
895.747	1
895.79	1
895.856	0
921.777	1
921.801	4
921.826	9
921.845	4
921.87	1
922.84	0
939.763	1
939.834	136
940.807	0
940.837	0
940.856	1
953.864	0
956.857	289
956.942	1
957.841	4
957.878	3
957.908	2
