Mass spectrum: BMP 42:10; LC-ESI-QTOF; MS2
Name: BMP 42:10
Class:  BMP
Formula: C48H75O10P
Exact mass: 843.094
SMILES: CC\C=C/C\C=C/C\C=C/C\C=C/C\C=C/CCCCCC(=O)OC(CO)COP(O)(=O)OCC(CO)OC(=O)CCC\C=C/C\C=C/C\C=C/C\C=C/C\C=C/CC
InChI: InChI=1S/C48H75O10P/c1-3-5-7-9-11-13-15-17-19-21-22-24-26-28-30-32-34-36-38-40-48(52)58-46(42-50)44-56-59(53,54)55-43-45(41-49)57-47(51)39-37-35-33-31-29-27-25-23-20-18-16-14-12-10-8-6-4-2/h5-8,11-14,17-20,22,24-25,27-28,30-31,33,45-46,49-50H,3-4,9-10,15-16,21,23,26,29,32,34-44H2,1-2H3,(H,53,54)/b7-5-,8-6-,13-11-,14-12-,19-17-,20-18-,24-22-,27-25-,30-28-,33-31-
Instrument: AB Sciex TripleTOF 5600+ system (Q-TOF) equipped with a DuoSpray ion source
Instrument type: LC-ESI-QTOF
Ms type: MS2
Ion mode: POSITIVE
Collision energy: 45V
Column name: Acquity UPLC Peptide BEH C18 column (50*2.1 mm; 1.7 um; 130A)(Waters Co.,Milford, MA, USA)
Retention time: 7.78686
Precursor type: [M+NH4]+
Precursor m/z: 860.547
Intensity: 668
m/z	relative intensity
81.071	46
91.05	23
133.1	23
135.117	34
147.109	23
159.11	34
185.126	23
187.146	46
201.162	23
215.141	34
225.172	26
229.198	23
359.251	351
359.282	176
387.285	999
387.301	612
807.526	26
