Mass spectrum: TG 56:7; LC-ESI-QTOF; MS2
Name: TG 56:7
Class:  TAG
Formula: C59H100O6
Exact mass: 905.443
SMILES: CCCCCCCCCCCCCCCC(=O)OCC(COC(=O)CCCCC\C=C/C\C=C/C\C=C/C\C=C/C\C=C/CC)OC(=O)CCCCCCCC\C=C/C=C\CCCCC
InChI: InChI=1S/C59H100O6/c1-4-7-10-13-16-19-22-25-27-28-29-30-32-34-37-40-43-46-49-52-58(61)64-55-56(54-63-57(60)51-48-45-42-39-36-33-24-21-18-15-12-9-6-3)65-59(62)53-50-47-44-41-38-35-31-26-23-20-17-14-11-8-5-2/h7,10,16-17,19-20,23,25-27,29-30,34,37,56H,4-6,8-9,11-15,18,21-22,24,28,31-33,35-36,38-55H2,1-3H3/b10-7-,19-16-,20-17-,26-23-,27-25-,30-29-,37-34-
Instrument: AB Sciex TripleTOF 5600+ system (Q-TOF) equipped with a DuoSpray ion source
Instrument type: LC-ESI-QTOF
Ms type: MS2
Ion mode: POSITIVE
Collision energy: 45V
Column name: Acquity UPLC Peptide BEH C18 column (50*2.1 mm; 1.7 um; 130A)(Waters Co.,Milford, MA, USA)
Retention time: 14.2488
Precursor type: [M+NH4]+
Precursor m/z: 922.7845
Intensity: 8894
m/z	relative intensity
77.037	8
79.054	13
81.071	31
83.085	10
91.054	14
93.07	14
95.085	30
105.069	21
107.084	9
109.099	15
119.084	20
121.1	20
131.084	13
133.097	19
147.119	12
149.135	9
157.099	9
159.116	13
161.137	15
163.146	13
171.114	19
173.131	12
175.148	15
177.164	10
185.134	13
187.147	10
189.167	14
191.178	10
199.149	13
201.158	14
203.178	98
213.161	11
227.177	8
245.228	15
259.209	8
259.245	10
263.237	24
265.249	35
269.227	85
271.246	4
285.216	5
285.231	7
287.231	71
287.243	54
297.265	4
311.25	5
313.242	4
313.276	10
314.278	8
315.27	5
319.274	5
335.263	5
337.273	88
339.288	121
343.264	7
361.271	6
391.285	6
461.353	4
549.464	9
573.491	23
575.485	20
575.507	22
575.543	6
577.511	8
599.499	16
599.527	9
600.51	13
601.518	999
601.543	194
603.525	13
623.502	227
623.523	54
623.544	18
625.485	18
625.514	192
625.538	50
627.541	8
641.507	10
648.499	7
649.512	14
649.531	16
651.533	10
711.59	2
793.627	3
821.719	2
840.695	4
851.698	3
853.717	2
887.727	11
887.762	11
905.757	100
905.788	15
922.522	12
922.65	3
922.737	21
922.761	110
922.793	168
922.818	65
922.857	7
923.183	2
