Mass spectrum: TG 60:9; LC-ESI-QTOF; MS2
Name: TG 60:9
Class:  TAG
Formula: C63H104O6
Exact mass: 957.519
SMILES: CCCCCCCC\C=C/C\C=C/C\C=C/CCCC(=O)OC(COC(=O)CCCCCCCCC\C=C/CCCCCC)COC(=O)CCCCC\C=C/C\C=C/C\C=C/C\C=C/C\C=C/CC
InChI: InChI=1S/C63H104O6/c1-4-7-10-13-16-19-22-25-28-30-31-33-35-38-41-44-47-50-53-56-62(65)68-59-60(58-67-61(64)55-52-49-46-43-40-37-34-27-24-21-18-15-12-9-6-3)69-63(66)57-54-51-48-45-42-39-36-32-29-26-23-20-17-14-11-8-5-2/h7,10,16,19,21,24-26,28-29,31,33,36,38-39,41,45,48,60H,4-6,8-9,11-15,17-18,20,22-23,27,30,32,34-35,37,40,42-44,46-47,49-59H2,1-3H3/b10-7-,19-16-,24-21-,28-25-,29-26-,33-31-,39-36-,41-38-,48-45-
Instrument: AB Sciex TripleTOF 5600+ system (Q-TOF) equipped with a DuoSpray ion source
Instrument type: LC-ESI-QTOF
Ms type: MS2
Ion mode: POSITIVE
Collision energy: 45V
Column name: Acquity UPLC Peptide BEH C18 column (50*2.1 mm; 1.7 um; 130A)(Waters Co.,Milford, MA, USA)
Retention time: 14.43954
Precursor type: [M+NH4]+
Precursor m/z: 974.8185
Intensity: 971
m/z	relative intensity
81.071	23
95.084	30
121.1	23
173.134	17
175.143	17
203.179	17
263.236	23
269.222	23
283.218	7
291.275	7
293.229	33
293.282	13
311.234	57
313.259	7
319.255	7
337.258	15
337.285	16
339.291	8
363.291	7
365.306	10
367.331	13
391.287	7
421.333	7
575.489	10
625.55	14
627.532	23
627.568	10
629.503	18
629.546	999
630.544	55
630.576	10
645.481	10
647.485	97
647.515	96
648.503	10
649.518	46
651.537	20
653.536	39
673.507	17
673.548	15
675.532	23
677.552	117
679.561	5
853.692	5
854.728	20
879.745	10
892.733	17
898.808	10
916.767	25
957.764	23
957.789	28
957.81	46
974.717	12
974.793	109
974.833	172
974.869	54
975.796	15
