Mass spectrum: TG 50:3; LC-ESI-QTOF; MS2
Name: TG 50:3
Class:  TAG
Formula: C53H96O6
Exact mass: 829.345
SMILES: CCCCCCCCCCCCCC(=O)OCC(COC(=O)CCCCCCCC\C=C/C=C\CCCCC)OC(=O)CCCCCCCCC\C=C/CCCCCC
InChI: InChI=1S/C53H96O6/c1-4-7-10-13-16-19-22-24-26-28-31-34-37-40-43-46-52(55)58-49-50(48-57-51(54)45-42-39-36-33-30-21-18-15-12-9-6-3)59-53(56)47-44-41-38-35-32-29-27-25-23-20-17-14-11-8-5-2/h16,19-20,22-24,50H,4-15,17-18,21,25-49H2,1-3H3/b19-16-,23-20-,24-22-
Instrument: AB Sciex TripleTOF 5600+ system (Q-TOF) equipped with a DuoSpray ion source
Instrument type: LC-ESI-QTOF
Ms type: MS2
Ion mode: POSITIVE
Collision energy: 45V
Column name: Acquity UPLC Peptide BEH C18 column (50*2.1 mm; 1.7 um; 130A)(Waters Co.,Milford, MA, USA)
Retention time: 14.19572
Precursor type: [M+NH4]+
Precursor m/z: 846.7619
Intensity: 67977
m/z	relative intensity
71.085	9
79.053	5
81.069	34
83.084	15
85.1	8
91.053	3
93.069	9
95.084	42
97.1	14
99.08	2
99.116	2
105.071	3
107.084	7
109.1	24
111.116	6
119.085	3
121.1	16
123.116	17
125.13	2
133.097	2
133.106	3
135.115	13
137.13	12
139.11	2
147.115	4
149.132	6
151.148	4
153.126	2
159.116	2
161.131	8
163.148	11
165.161	3
173.133	4
175.149	9
177.16	2
177.171	2
179.181	3
189.164	3
211.204	9
217.193	2
219.212	14
221.223	3
235.207	3
237.222	31
239.238	39
243.206	5
243.22	2
245.225	16
247.245	4
256.263	2
257.252	2
261.219	24
261.235	3
263.238	58
265.251	8
271.243	0
275.239	0
277.218	1
285.23	1
285.246	4
291.233	0
293.248	1
295.27	0
297.282	0
299.234	1
301.255	1
309.245	0
311.257	12
313.275	33
317.247	10
319.264	11
321.269	0
333.245	1
335.256	2
337.274	17
339.288	5
339.303	2
361.361	0
449.36	0
451.39	0
461.416	0
463.42	0
465.39	0
475.445	1
481.447	1
491.41	0
499.452	3
499.467	1
499.484	1
501.467	1
503.423	0
517.47	2
519.439	1
521.463	1
523.464	2
523.484	1
527.485	1
533.452	1
545.433	1
545.46	7
545.498	1
547.474	257
547.775	1
548.461	0
548.488	1
549.489	800
550.477	2
550.505	4
551.505	156
552.494	1
561.489	1
563.511	1
571.694	2
571.731	1
573.35	1
573.49	999
573.721	0
574.465	1
574.497	11
575.331	0
575.506	740
576.488	1
576.508	3
576.527	3
577.508	20
577.53	27
589.481	0
591.507	1
599.63	0
601.522	235
602.523	2
603.517	3
603.541	4
603.56	3
619.543	0
629.561	1
677.56	0
717.618	0
731.607	0
731.658	0
811.712	10
811.742	8
811.783	0
829.69	4
829.731	45
830.748	0
844.12	1
846.76	157
846.86	0
847.746	1
847.809	0
