Mass spectrum: TG 55:4; LC-ESI-QTOF; MS2
Name: TG 55:4
Class:  TAG
Formula: C58H104O6
Exact mass: 897.4639999999999
SMILES: CCCCCCCCC\C=C/CCCCCCCC(=O)OCC(COC(=O)CCCCCCCCC\C=C/CCCCCC)OC(=O)CCCCCCCC\C=C/C=C\CCCCC
InChI: InChI=1S/C58H104O6/c1-4-7-10-13-16-19-22-25-28-31-33-36-39-42-45-48-51-57(60)63-54-55(64-58(61)52-49-46-43-40-37-34-30-27-24-21-18-15-12-9-6-3)53-62-56(59)50-47-44-41-38-35-32-29-26-23-20-17-14-11-8-5-2/h18,20-21,23-24,27-28,31,55H,4-17,19,22,25-26,29-30,32-54H2,1-3H3/b21-18-,23-20-,27-24-,31-28-
Instrument: AB Sciex TripleTOF 5600+ system (Q-TOF) equipped with a DuoSpray ion source
Instrument type: LC-ESI-QTOF
Ms type: MS2
Ion mode: POSITIVE
Collision energy: 45V
Column name: Acquity UPLC Peptide BEH C18 column (50*2.1 mm; 1.7 um; 130A)(Waters Co.,Milford, MA, USA)
Retention time: 14.70589
Precursor type: [M+NH4]+
Precursor m/z: 914.8141
Intensity: 28999
m/z	relative intensity
71.088	3
79.054	4
81.068	25
83.084	16
85.1	4
91.054	5
93.07	9
95.085	29
97.099	12
107.086	7
109.099	16
111.116	7
119.085	3
121.099	14
121.107	4
123.116	11
133.1	4
135.115	19
137.129	4
149.131	11
151.15	3
161.126	4
161.136	4
163.148	10
165.168	3
175.144	6
175.155	3
177.161	7
179.177	4
189.161	3
245.224	22
247.243	9
251.233	3
261.221	7
261.26	7
263.236	71
265.252	43
273.256	1
275.271	1
277.243	1
277.262	1
279.269	27
281.28	2
289.249	1
291.273	2
293.283	3
301.251	2
305.247	4
317.265	2
319.259	11
319.272	4
321.282	1
325.272	1
335.258	1
335.302	1
337.272	21
339.285	29
353.301	19
355.312	7
365.29	1
367.32	2
527.477	3
541.497	4
573.475	3
573.507	3
575.502	3
577.521	3
587.492	56
587.518	15
589.495	5
589.517	14
589.534	8
591.494	2
591.528	4
599.504	156
599.647	3
600.513	4
601.516	944
602.513	13
602.548	2
603.509	23
603.536	41
603.562	12
604.541	3
605.529	2
605.559	2
606.563	5
607.555	1
613.532	3
613.62	3
615.533	999
615.62	2
616.517	2
616.548	11
617.546	964
618.547	19
618.582	2
619.554	3
619.584	6
624.49	4
627.516	4
627.534	12
627.563	2
629.539	45
629.56	29
631.547	3
631.567	3
641.547	6
643.567	4
643.591	2
673.525	1
675.541	0
717.59	0
741.661	1
745.623	0
757.619	0
771.678	0
785.714	1
799.677	1
813.699	0
813.754	0
832.718	2
855.738	8
856.711	2
856.755	2
879.746	4
879.772	11
879.807	4
893.746	2
897.746	16
897.788	120
897.854	2
898.783	3
906.72	14
906.757	43
906.793	17
907.726	2
907.754	3
907.826	1
914.749	4
914.79	63
914.817	200
915.77	1
915.812	4
915.847	2
