Mass spectrum: PG 36:2; LC-ESI-QTOF; MS2
Name: PG 36:2
Class:  PG
Formula: C42H79O10P
Exact mass: 775.0600000000001
SMILES: CCCCCCCCCCCCCCCC(=O)OCC(COP(O)(=O)OCC(O)CO)OC(=O)CCCCCCCCC\C=C/C\C=C/CCCCC
InChI: InChI=1S/C42H79O10P/c1-3-5-7-9-11-13-15-17-18-19-20-22-24-26-28-30-32-34-42(46)52-40(38-51-53(47,48)50-36-39(44)35-43)37-49-41(45)33-31-29-27-25-23-21-16-14-12-10-8-6-4-2/h11,13,17-18,39-40,43-44H,3-10,12,14-16,19-38H2,1-2H3,(H,47,48)/b13-11-,18-17-
Instrument: AB Sciex TripleTOF 5600+ system (Q-TOF) equipped with a DuoSpray ion source
Instrument type: LC-ESI-QTOF
Ms type: MS2
Ion mode: POSITIVE
Collision energy: 45V
Column name: Acquity UPLC Peptide BEH C18 column (50*2.1 mm; 1.7 um; 130A)(Waters Co.,Milford, MA, USA)
Retention time: 8.782778
Precursor type: [M+NH4]+
Precursor m/z: 792.5771
Intensity: 4246
m/z	relative intensity
81.069	18
85.096	4
86.096	16
95.086	15
97.101	5
109.099	12
123.116	5
124.999	7
137.135	5
181.104	4
183.516	4
184.072	492
239.244	9
263.239	8
267.268	6
273.263	3
291.269	10
307.301	3
311.262	4
313.277	6
319.267	2
323.297	4
337.271	17
341.303	6
347.303	3
365.307	16
369.356	5
370.353	9
371.358	8
383.263	5
385.275	4
392.299	3
439.025	2
575.475	3
575.513	6
591.539	3
596.46	3
597.482	17
601.651	6
603.288	3
603.538	999
604.546	4
607.565	4
651.499	7
651.522	14
651.539	41
651.568	12
720.483	2
721.474	16
733.486	4
734.556	2
739.518	3
749.45	8
774.597	2
780.219	2
780.522	23
780.561	37
780.587	12
792.473	6
792.514	9
792.559	61
792.582	39
792.606	41
