Mass spectrum: TG 56:8; LC-ESI-QTOF; MS2
Name: TG 56:8
Class:  TAG
Formula: C59H98O6
Exact mass: 903.427
SMILES: CCCCCCCCCCCCCCCC(=O)OCC(COC(=O)CC\C=C/C\C=C/C\C=C/C\C=C/C\C=C/C\C=C/CC)OC(=O)CCCCCCCC\C=C/C=C\CCCCC
InChI: InChI=1S/C59H98O6/c1-4-7-10-13-16-19-22-25-27-28-29-30-32-34-37-40-43-46-49-52-58(61)64-55-56(54-63-57(60)51-48-45-42-39-36-33-24-21-18-15-12-9-6-3)65-59(62)53-50-47-44-41-38-35-31-26-23-20-17-14-11-8-5-2/h7,10,16-17,19-20,23,25-27,29-30,34,37,43,46,56H,4-6,8-9,11-15,18,21-22,24,28,31-33,35-36,38-42,44-45,47-55H2,1-3H3/b10-7-,19-16-,20-17-,26-23-,27-25-,30-29-,37-34-,46-43-
Instrument: AB Sciex TripleTOF 5600+ system (Q-TOF) equipped with a DuoSpray ion source
Instrument type: LC-ESI-QTOF
Ms type: MS2
Ion mode: POSITIVE
Collision energy: 45V
Column name: Acquity UPLC Peptide BEH C18 column (50*2.1 mm; 1.7 um; 130A)(Waters Co.,Milford, MA, USA)
Retention time: 14.14691
Precursor type: [M+NH4]+
Precursor m/z: 920.7697
Intensity: 21122
m/z	relative intensity
71.085	6
79.054	11
81.07	29
83.086	9
85.099	5
91.053	12
93.07	14
95.085	24
97.1	5
105.068	6
107.086	7
109.101	16
117.071	4
119.084	10
121.099	10
123.118	9
129.073	5
131.086	8
133.101	7
135.116	5
137.133	6
147.115	5
157.095	6
159.119	9
161.127	7
161.137	4
163.148	5
169.101	10
171.115	11
173.13	12
175.147	11
181.102	7
183.118	7
185.133	12
187.112	4
187.147	8
189.125	4
189.167	5
195.112	4
197.127	5
199.142	5
199.153	5
201.126	5
201.163	11
203.178	5
209.134	6
211.152	6
213.164	11
215.178	8
223.146	7
225.166	7
227.177	13
237.164	6
239.236	25
245.226	6
263.238	26
269.227	6
283.198	1
283.242	6
291.209	3
293.226	41
309.219	6
311.236	55
311.265	3
313.274	31
319.262	4
319.274	2
327.239	1
335.248	2
337.274	27
339.291	3
349.254	1
367.26	6
367.287	2
367.307	1
383.255	1
385.265	3
391.283	2
399.35	1
409.345	1
483.341	1
501.457	2
511.369	1
513.411	1
539.407	1
541.421	1
545.468	1
549.469	1
573.45	2
573.482	7
573.686	2
573.709	3
575.503	999
577.514	5
577.548	1
591.468	1
619.477	1
621.481	6
621.507	2
621.562	1
623.506	184
625.51	1
639.487	2
641.5	2
645.488	1
647.501	246
649.509	5
649.539	1
727.592	0
755.628	0
767.63	0
777.683	0
781.633	0
789.687	0
793.647	1
795.659	0
805.636	0
807.644	0
819.669	0
821.651	0
833.682	1
838.712	0
852.722	2
854.715	2
885.688	0
885.728	6
885.781	1
902.773	0
903.746	62
904.185	0
917.172	0
917.841	0
919.814	0
920.629	1
920.768	197
