Mass spectrum: TG 50:2; LC-ESI-QTOF; MS2
Name: TG 50:2
Class:  TAG
Formula: C53H98O6
Exact mass: 831.361
SMILES: CCCCCCCCCCCCCCCC(=O)OCC(COC(=O)CCCCCCCC\C=C/C=C\CCCCC)OC(=O)CCCCCCCCCCCCCCC
InChI: InChI=1S/C53H98O6/c1-4-7-10-13-16-19-22-25-26-29-31-34-37-40-43-46-52(55)58-49-50(59-53(56)47-44-41-38-35-32-28-24-21-18-15-12-9-6-3)48-57-51(54)45-42-39-36-33-30-27-23-20-17-14-11-8-5-2/h16,19,22,25,50H,4-15,17-18,20-21,23-24,26-49H2,1-3H3/b19-16-,25-22-
Instrument: AB Sciex TripleTOF 5600+ system (Q-TOF) equipped with a DuoSpray ion source
Instrument type: LC-ESI-QTOF
Ms type: MS2
Ion mode: POSITIVE
Collision energy: 45V
Column name: Acquity UPLC Peptide BEH C18 column (50*2.1 mm; 1.7 um; 130A)(Waters Co.,Milford, MA, USA)
Retention time: 14.47379
Precursor type: [M+NH4]+
Precursor m/z: 848.7715
Intensity: 235974
m/z	relative intensity
71.047	0
71.085	20
77.038	2
79.054	9
81.069	53
83.051	0
83.085	26
85.064	2
85.1	21
91.054	5
93.069	9
94.796	0
95.085	62
97.065	2
97.1	21
99.078	2
99.115	4
105.069	4
107.085	8
109.1	41
111.081	2
111.117	9
113.093	1
113.132	2
119.085	3
121.099	12
123.117	25
125.094	1
125.132	4
127.111	1
127.149	1
131.087	0
133.101	5
135.115	11
137.131	14
139.112	1
139.146	1
141.126	1
141.166	0
147.116	6
149.132	10
151.109	0
151.147	8
153.126	2
155.141	1
155.178	0
159.118	0
161.132	11
163.148	11
165.128	0
165.164	7
167.144	1
173.134	0
175.148	11
177.163	5
179.143	1
179.177	2
179.188	1
181.157	1
187.148	0
189.166	4
191.181	1
193.158	1
195.139	0
199.148	0
203.179	2
205.194	0
207.172	1
207.181	0
211.205	1
217.19	0
217.201	0
219.211	5
221.226	7
235.168	0
237.221	11
239.238	99
245.226	25
247.232	0
247.245	3
249.186	0
256.265	4
257.249	2
261.218	0
262.423	0
263.197	0
263.238	77
265.253	16
267.269	0
273.226	0
277.221	0
279.234	0
280.269	0
283.231	0
283.253	0
285.236	0
285.251	0
289.253	0
291.256	0
293.247	0
295.262	0
295.278	0
297.274	0
297.287	0
301.255	0
311.259	3
312.301	0
313.276	60
319.263	17
321.27	0
321.285	0
335.253	0
335.267	0
337.271	8
337.288	2
339.276	0
339.295	3
341.296	0
341.314	0
367.289	0
393.316	0
451.381	1
465.385	0
465.409	0
475.444	0
477.4	0
483.467	0
491.41	0
501.449	0
501.471	2
519.472	0
519.49	0
521.465	0
523.484	0
529.507	0
547.475	27
549.273	0
549.491	268
549.688	0
549.768	1
549.806	0
550.976	0
551.093	0
551.16	0
551.332	0
551.366	0
551.401	0
551.505	728
552.482	0
553.378	0
559.825	0
561.493	0
563.555	0
573.585	0
573.677	1
573.7	9
573.761	0
574.647	0
574.871	0
575.098	0
575.253	0
575.388	1
575.505	999
576.15	0
576.518	1
576.9	0
577.257	0
577.52	244
578.337	0
578.497	0
579.518	0
580.058	0
581.59	0
581.757	0
582.857	0
584.992	0
589.51	0
601.684	0
603.538	56
603.6	0
605.556	0
813.728	2
813.748	2
813.766	0
813.806	0
829.109	0
831.722	3
831.754	9
831.793	0
846.096	0
846.149	0
847.76	0
847.804	0
848.657	0
848.773	79
849.972	0
853.758	0
