Mass spectrum: BMP 36:4; LC-ESI-QTOF; MS2
Name: BMP 36:4
Class:  BMP
Formula: C42H75O10P
Exact mass: 771.028
SMILES: CCCCC\C=C/C\C=C/CCCCCCCC(=O)OC(CO)COP(O)(=O)OCC(CO)OC(=O)CCCCCCC\C=C/C\C=C/CCCCC
InChI: InChI=1S/C42H75O10P/c1-3-5-7-9-11-13-15-17-19-21-23-25-27-29-31-33-41(45)51-39(35-43)37-49-53(47,48)50-38-40(36-44)52-42(46)34-32-30-28-26-24-22-20-18-16-14-12-10-8-6-4-2/h11-14,17-20,39-40,43-44H,3-10,15-16,21-38H2,1-2H3,(H,47,48)/b13-11-,14-12-,19-17-,20-18-
Instrument: AB Sciex TripleTOF 5600+ system (Q-TOF) equipped with a DuoSpray ion source
Instrument type: LC-ESI-QTOF
Ms type: MS2
Ion mode: POSITIVE
Collision energy: 45V
Column name: Acquity UPLC Peptide BEH C18 column (50*2.1 mm; 1.7 um; 130A)(Waters Co.,Milford, MA, USA)
Retention time: 7.938278
Precursor type: [M+NH4]+
Precursor m/z: 788.5433
Intensity: 1392
m/z	relative intensity
81.067	21
91.053	6
95.087	9
107.09	6
109.102	21
135.119	6
149.127	6
161.132	12
177.165	6
263.239	12
319.26	6
335.259	43
337.263	204
337.276	999
339.285	27
360.324	33
599.506	18
