Mass spectrum: TG 54:8; LC-ESI-QTOF; MS2
Name: TG 54:8
Class:  TAG
Formula: C57H94O6
Exact mass: 875.3729999999999
SMILES: CCCCCCCC\C=C/CCCCCC(=O)OCC(COC(=O)CCC\C=C/C\C=C/C\C=C/C\C=C/C\C=C/CC)OC(=O)CCCCCCCC\C=C/C=C\CCCCC
InChI: InChI=1S/C57H94O6/c1-4-7-10-13-16-19-22-25-27-28-30-32-35-38-41-44-47-50-56(59)62-53-54(52-61-55(58)49-46-43-40-37-34-31-24-21-18-15-12-9-6-3)63-57(60)51-48-45-42-39-36-33-29-26-23-20-17-14-11-8-5-2/h7,10,16-17,19-20,23,25-27,30-32,34,38,41,54H,4-6,8-9,11-15,18,21-22,24,28-29,33,35-37,39-40,42-53H2,1-3H3/b10-7-,19-16-,20-17-,26-23-,27-25-,32-30-,34-31-,41-38-
Instrument: AB Sciex TripleTOF 5600+ system (Q-TOF) equipped with a DuoSpray ion source
Instrument type: LC-ESI-QTOF
Ms type: MS2
Ion mode: POSITIVE
Collision energy: 45V
Column name: Acquity UPLC Peptide BEH C18 column (50*2.1 mm; 1.7 um; 130A)(Waters Co.,Milford, MA, USA)
Retention time: 13.79147
Precursor type: [M+NH4]+
Precursor m/z: 892.7366
Intensity: 144992
m/z	relative intensity
71.048	1
71.085	2
77.038	5
79.053	21
81.069	49
83.05	1
83.085	15
85.063	2
85.102	2
91.053	26
93.069	27
95.05	0
95.085	44
97.064	4
97.1	13
99.074	1
99.08	2
103.054	1
105.069	17
107.085	21
109.101	26
111.08	3
111.117	6
113.098	1
115.053	2
117.069	17
119.084	22
121.1	34
123.079	1
123.116	22
125.095	4
125.13	1
127.11	1
128.062	2
129.069	10
131.085	27
133.1	21
135.079	1
135.116	31
137.095	2
137.132	10
139.112	2
141.07	3
141.128	1
142.076	0
143.084	7
145.101	20
147.082	0
147.116	15
149.095	2
149.131	15
151.113	1
151.148	4
153.068	0
153.125	3
155.085	4
156.09	0
157.101	13
159.116	29
161.095	3
161.131	24
163.109	4
163.147	17
165.068	0
165.128	2
165.166	2
167.09	0
167.144	1
168.092	0
169.101	10
171.116	21
173.099	1
173.131	33
175.112	5
175.148	32
177.12	1
177.129	2
177.162	6
179.144	1
179.179	1
181.1	2
181.158	0
183.116	15
185.131	28
187.112	2
187.146	27
189.127	3
189.163	13
191.142	1
191.175	1
191.183	1
193.156	2
195.109	1
195.119	0
197.132	20
198.138	0
199.108	0
199.147	23
201.127	3
201.163	117
203.142	8
203.176	5
205.155	1
205.194	0
207.17	1
209.131	3
211.147	18
213.126	1
213.163	8
215.14	7
215.177	3
217.155	1
217.165	0
217.194	2
219.173	1
219.209	18
221.149	0
221.189	0
223.146	2
224.154	1
225.162	15
227.139	0
227.171	1
227.181	2
229.157	3
229.195	1
231.175	1
233.227	0
235.204	0
237.159	1
237.22	41
239.177	8
239.236	1
241.157	1
241.195	8
243.172	2
243.184	1
243.209	11
245.225	15
247.24	1
249.187	0
253.202	0
255.211	0
257.19	5
257.226	9
259.204	2
261.219	6
263.178	0
263.199	0
263.236	42
265.191	6
265.25	1
267.209	116
269.223	3
269.236	1
273.183	0
275.176	0
277.215	0
279.207	0
279.223	0
279.239	0
283.205	7
283.248	0
284.331	0
285.22	119
287.238	3
289.251	0
293.222	0
293.244	2
295.202	0
295.255	0
297.224	0
299.207	0
299.232	0
301.251	1
309.242	4
311.257	166
313.257	1
313.275	4
315.231	0
317.246	1
319.24	0
319.263	10
321.278	0
323.243	0
335.257	7
337.273	167
339.225	0
339.239	0
339.28	1
339.291	3
339.31	0
341.246	8
351.281	0
355.292	0
357.238	2
359.241	0
359.261	4
365.267	7
367.265	0
367.291	0
371.298	0
383.31	0
391.283	7
393.302	0
397.307	0
405.304	0
407.354	0
421.312	0
423.323	0
423.359	0
425.367	0
433.331	1
437.378	0
445.324	0
447.353	0
459.328	0
459.355	0
461.362	1
463.391	0
471.351	1
473.371	0
475.376	1
485.357	1
499.37	1
499.388	0
499.454	1
501.407	0
503.415	1
503.439	0
511.376	1
511.39	0
511.426	1
513.383	0
513.403	0
519.415	0
519.45	0
521.41	0
521.43	2
521.449	1
525.383	0
527.414	0
529.428	2
529.45	1
539.415	0
545.438	1
545.458	3
547.424	1
547.465	17
551.411	1
553.426	0
565.443	0
565.473	0
567.446	0
569.441	0
571.466	18
571.671	1
571.699	3
573.37	1
573.483	999
574.45	0
574.484	7
574.502	2
575.503	12
576.494	0
577.513	11
578.511	0
579.513	1
579.539	2
587.492	1
589.487	0
591.484	3
591.509	4
593.429	2
593.455	8
593.512	8
595.468	325
596.447	0
597.461	4
597.482	28
599.498	26
601.516	1
603.463	0
603.521	1
611.445	0
611.469	1
611.494	0
613.463	1
613.484	1
613.503	1
619.443	2
619.462	4
619.522	19
619.556	3
621.483	348
621.54	0
622.466	0
622.499	1
623.489	2
623.511	2
625.514	0
637.489	1
639.483	1
639.501	1
639.523	0
647.482	0
647.509	1
681.545	0
685.544	0
693.578	0
707.575	0
713.578	0
725.554	0
735.573	0
735.615	0
739.6	0
749.631	0
751.572	0
751.614	0
753.608	0
761.599	0
763.614	0
765.584	0
765.613	0
775.632	0
777.604	0
779.595	0
779.625	0
791.6	0
791.637	0
791.67	0
793.603	0
793.629	0
793.65	0
805.608	0
805.633	0
805.66	0
809.669	0
810.647	1
810.683	0
819.642	0
833.648	0
833.688	0
839.679	0
847.625	0
847.668	1
847.692	0
847.712	0
857.66	1
857.699	13
857.765	0
866.689	0
872.967	0
875.137	0
875.63	0
875.709	109
875.804	0
876.717	0
883.669	0
883.698	0
883.734	0
889.909	0
889.936	0
889.977	0
892.734	147
893.713	1
893.746	1
893.773	0
