Mass spectrum: TG 46:2; LC-ESI-QTOF; MS2
Name: TG 46:2
Class:  TAG
Formula: C49H90O6
Exact mass: 775.253
SMILES: CCCCCCCCCCCCCCCC(=O)OC(COC(=O)CCCCCCCCCCC)COC(=O)CCCCCCCC\C=C/C=C\CCCCC
InChI: InChI=1S/C49H90O6/c1-4-7-10-13-16-19-21-23-24-26-27-30-33-36-39-42-48(51)54-45-46(44-53-47(50)41-38-35-32-29-18-15-12-9-6-3)55-49(52)43-40-37-34-31-28-25-22-20-17-14-11-8-5-2/h16,19,21,23,46H,4-15,17-18,20,22,24-45H2,1-3H3/b19-16-,23-21-
Instrument: AB Sciex TripleTOF 5600+ system (Q-TOF) equipped with a DuoSpray ion source
Instrument type: LC-ESI-QTOF
Ms type: MS2
Ion mode: POSITIVE
Collision energy: 45V
Column name: Acquity UPLC Peptide BEH C18 column (50*2.1 mm; 1.7 um; 130A)(Waters Co.,Milford, MA, USA)
Retention time: 13.88342
Precursor type: [M+NH4]+
Precursor m/z: 792.705
Intensity: 11322
m/z	relative intensity
71.085	7
79.057	4
81.07	26
83.086	20
85.102	9
93.067	4
93.074	5
95.086	35
97.101	16
107.087	8
109.1	24
111.116	8
121.101	21
123.115	12
125.131	3
135.117	17
137.131	7
137.138	3
149.132	8
177.166	3
183.174	8
191.178	3
191.187	3
209.19	12
211.206	28
219.213	9
237.223	48
239.24	13
245.225	4
257.207	3
263.237	11
263.248	3
265.251	15
283.225	1
283.239	1
285.242	7
285.256	3
293.243	1
293.261	1
311.245	3
311.257	6
311.269	6
313.271	6
319.263	2
337.278	1
339.283	1
339.299	1
445.409	0
465.397	2
467.4	1
467.428	0
473.435	1
491.402	1
493.426	212
495.443	157
495.493	1
515.4	2
515.44	1
517.412	1
519.441	306
519.804	1
519.839	1
521.459	999
523.478	1
543.431	1
543.463	1
547.474	565
549.492	233
549.556	1
551.521	1
571.463	2
575.508	194
577.493	2
577.517	7
577.542	1
577.559	1
603.513	14
603.546	43
631.578	1
757.674	2
757.717	0
769.212	0
771.576	0
771.638	53
771.667	41
771.704	2
771.809	0
775.661	2
775.685	5
775.708	1
790.214	0
792.708	73
