Mass spectrum: TG 56:6; LC-ESI-QTOF; MS2
Name: TG 56:6
Class:  TAG
Formula: C59H102O6
Exact mass: 907.4590000000001
SMILES: CCCCCCCCCCCCCCCCCC(=O)OC(COC(=O)CCCCCCCCCCCCCCC)COC(=O)CC\C=C/C\C=C/C\C=C/C\C=C/C\C=C/C\C=C/CC
InChI: InChI=1S/C59H102O6/c1-4-7-10-13-16-19-22-25-27-28-29-30-32-34-37-40-43-46-49-52-58(61)64-55-56(54-63-57(60)51-48-45-42-39-36-33-24-21-18-15-12-9-6-3)65-59(62)53-50-47-44-41-38-35-31-26-23-20-17-14-11-8-5-2/h7,10,16,19,25,27,29-30,34,37,43,46,56H,4-6,8-9,11-15,17-18,20-24,26,28,31-33,35-36,38-42,44-45,47-55H2,1-3H3/b10-7-,19-16-,27-25-,30-29-,37-34-,46-43-
Instrument: AB Sciex TripleTOF 5600+ system (Q-TOF) equipped with a DuoSpray ion source
Instrument type: LC-ESI-QTOF
Ms type: MS2
Ion mode: POSITIVE
Collision energy: 45V
Column name: Acquity UPLC Peptide BEH C18 column (50*2.1 mm; 1.7 um; 130A)(Waters Co.,Milford, MA, USA)
Retention time: 14.70825
Precursor type: [M+NH4]+
Precursor m/z: 924.7973
Intensity: 25110
m/z	relative intensity
71.085	7
79.053	4
81.07	14
83.085	9
85.101	8
91.054	8
93.069	4
95.085	22
97.1	7
105.068	4
107.087	3
109.101	18
111.118	3
117.067	6
119.082	4
121.099	5
123.116	7
129.07	6
131.085	7
133.099	6
135.117	5
137.13	4
141.07	3
145.099	6
147.114	3
151.147	3
155.086	3
157.098	7
159.115	8
161.132	7
163.147	5
169.103	8
171.116	12
173.133	9
175.148	8
181.101	6
183.117	7
185.131	12
187.112	3
187.146	7
189.131	3
195.114	3
197.134	8
199.149	8
201.125	3
201.162	17
203.142	3
209.133	7
211.147	14
213.162	12
215.179	13
223.148	9
225.159	4
225.17	3
227.145	3
227.177	25
229.153	3
237.163	7
239.236	25
241.157	9
249.256	3
251.182	4
265.19	4
267.215	4
267.267	19
269.228	12
281.224	0
283.203	1
283.238	6
283.253	2
284.291	1
291.213	1
293.223	52
295.259	1
309.204	0
309.229	2
310.269	0
311.236	82
311.267	1
312.236	1
313.274	45
323.297	0
327.231	1
339.286	0
341.303	44
367.259	3
367.274	2
367.296	2
369.287	0
383.256	1
383.276	1
385.271	1
395.307	3
395.321	2
421.327	0
433.001	0
447.363	0
449.36	0
459.349	0
461.372	1
463.38	1
475.374	1
487.378	1
489.399	0
531.459	1
541.419	1
543.442	0
549.458	1
549.485	1
559.489	1
577.513	2
577.531	1
577.695	1
577.721	1
577.736	1
577.784	0
578.525	4
579.429	1
579.533	999
580.529	12
580.555	3
581.441	0
595.462	0
601.495	1
601.526	1
602.519	3
602.552	1
603.554	1
604.508	1
604.546	2
616.521	0
617.545	3
618.524	3
618.576	1
619.567	1
620.537	1
620.568	3
620.599	0
623.502	278
624.506	4
624.531	1
639.496	0
649.538	1
651.532	228
651.603	1
652.518	1
652.541	4
667.518	0
679.566	0
785.662	0
797.669	0
809.667	0
811.666	0
823.653	0
825.66	0
825.712	0
837.706	1
842.69	0
855.728	0
855.754	1
856.711	1
856.742	4
857.78	0
889.741	2
889.806	0
900.807	0
907.713	1
907.772	49
908.778	0
917.76	0
917.823	1
924.732	1
924.774	39
924.801	172
924.827	30
925.771	1
925.799	3
925.841	1
