Mass spectrum: TG 51:4; LC-ESI-QTOF; MS2
Name: TG 51:4
Class:  TAG
Formula: C54H96O6
Exact mass: 841.356
SMILES: CCCCCCCCCCCCCCC(=O)OCC(COC(=O)CCCCCCCC\C=C/C=C\CCCCC)OC(=O)CCCCCCCC\C=C/C=C\CCCCC
InChI: InChI=1S/C54H96O6/c1-4-7-10-13-16-19-22-25-27-29-32-35-38-41-44-47-53(56)59-50-51(49-58-52(55)46-43-40-37-34-31-24-21-18-15-12-9-6-3)60-54(57)48-45-42-39-36-33-30-28-26-23-20-17-14-11-8-5-2/h16-17,19-20,22-23,25-26,51H,4-15,18,21,24,27-50H2,1-3H3/b19-16-,20-17-,25-22-,26-23-
Instrument: AB Sciex TripleTOF 5600+ system (Q-TOF) equipped with a DuoSpray ion source
Instrument type: LC-ESI-QTOF
Ms type: MS2
Ion mode: POSITIVE
Collision energy: 45V
Column name: Acquity UPLC Peptide BEH C18 column (50*2.1 mm; 1.7 um; 130A)(Waters Co.,Milford, MA, USA)
Retention time: 14.09904
Precursor type: [M+NH4]+
Precursor m/z: 858.7536
Intensity: 3728
m/z	relative intensity
81.065	21
81.071	27
83.084	16
95.083	51
109.102	24
121.101	16
123.116	16
135.117	21
137.138	13
175.144	13
225.223	16
237.219	13
245.226	26
251.235	16
261.229	16
263.233	48
263.251	21
277.248	5
299.237	5
299.264	16
311.258	7
313.281	10
317.25	16
319.263	8
327.305	4
335.267	5
337.27	16
337.289	17
339.293	11
525.473	10
547.474	7
549.496	10
559.469	110
559.504	11
561.491	999
563.503	80
563.525	37
571.486	13
573.482	122
573.503	96
575.505	84
585.47	43
585.49	81
587.502	132
587.518	33
587.541	10
589.51	9
589.551	9
599.504	569
599.552	12
601.514	70
601.557	10
603.528	21
673.506	2
729.615	2
823.71	13
825.697	2
841.692	8
841.734	51
841.76	30
858.735	30
858.759	86
858.786	28
