Mass spectrum: TG 58:9; LC-ESI-QTOF; MS2
Name: TG 58:9
Class:  TAG
Formula: C61H100O6
Exact mass: 929.4649999999999
SMILES: CCCCCC\C=C/CCCCCCCCCC(=O)OCC(COC(=O)CCC\C=C/C\C=C/C\C=C/C\C=C/CCCCC)OC(=O)CCC\C=C/C\C=C/C\C=C/C\C=C/CCCCC
InChI: InChI=1S/C61H100O6/c1-4-7-10-13-16-19-22-25-28-30-33-36-39-42-45-48-51-54-60(63)66-57-58(56-65-59(62)53-50-47-44-41-38-35-32-27-24-21-18-15-12-9-6-3)67-61(64)55-52-49-46-43-40-37-34-31-29-26-23-20-17-14-11-8-5-2/h16-17,19-21,24-26,28-29,33-34,36-37,42-43,45-46,58H,4-15,18,22-23,27,30-32,35,38-41,44,47-57H2,1-3H3/b19-16-,20-17-,24-21-,28-25-,29-26-,36-33-,37-34-,45-42-,46-43-
Instrument: AB Sciex TripleTOF 5600+ system (Q-TOF) equipped with a DuoSpray ion source
Instrument type: LC-ESI-QTOF
Ms type: MS2
Ion mode: POSITIVE
Collision energy: 45V
Column name: Acquity UPLC Peptide BEH C18 column (50*2.1 mm; 1.7 um; 130A)(Waters Co.,Milford, MA, USA)
Retention time: 14.18104
Precursor type: [M+NH4]+
Precursor m/z: 946.7849
Intensity: 8167
m/z	relative intensity
79.055	5
81.069	16
83.085	6
91.053	7
93.071	13
95.085	19
97.101	5
105.067	6
107.087	8
109.1	13
111.114	3
117.07	3
119.085	9
121.1	12
123.116	8
129.068	3
131.088	6
133.1	7
135.118	11
137.132	2
145.102	4
147.118	5
149.132	6
155.082	3
157.1	5
159.116	7
161.132	10
163.147	7
169.103	4
171.115	9
173.134	10
175.147	12
177.162	5
181.105	3
183.118	6
185.131	7
187.149	4
189.159	2
191.179	2
195.121	3
197.132	4
199.145	6
201.164	10
203.176	4
209.129	6
211.138	3
211.151	8
213.16	7
215.179	9
223.141	4
223.155	4
225.155	3
225.169	4
227.14	2
227.179	12
229.157	4
237.161	3
241.157	3
245.221	4
247.243	9
251.179	3
263.237	28
265.193	3
265.251	24
267.21	5
269.226	11
281.213	1
283.197	1
283.24	4
291.202	1
291.218	2
293.223	40
293.245	5
295.239	2
309.211	1
309.225	2
311.237	57
313.269	1
319.264	5
321.279	3
325.217	1
335.249	1
337.271	31
339.287	48
351.229	4
365.276	1
367.261	5
383.265	3
385.277	2
391.281	2
393.272	1
393.295	2
393.318	1
419.32	1
485.359	1
525.403	1
527.486	1
555.445	1
565.437	1
573.457	4
573.476	2
575.477	4
575.499	2
575.532	1
576.474	0
576.506	3
576.528	2
597.454	1
597.479	2
597.503	1
598.462	1
598.48	10
598.518	3
599.509	2
599.622	1
599.643	2
601.518	999
602.511	15
602.528	16
602.549	4
623.469	1
623.508	1
624.48	1
625.508	3
645.474	2
645.502	1
645.529	2
646.462	2
646.483	4
646.503	3
647.501	214
648.49	5
648.51	3
648.541	2
649.518	193
650.502	1
650.53	6
663.517	1
665.538	2
667.501	1
669.461	2
669.496	2
670.475	6
670.495	3
670.523	3
673.504	1
673.544	1
681.567	0
723.634	0
767.605	0
807.651	0
817.655	0
845.672	1
859.694	1
864.666	0
864.727	1
911.731	3
911.772	2
923.804	1
926.726	207
926.818	2
927.694	1
927.728	1
927.75	2
929.718	11
929.739	30
929.764	29
929.788	13
929.816	3
930.73	1
930.785	1
946.783	253
946.834	14
947.765	4
947.8	4
947.828	1
