Mass spectrum: PG 34:2; LC-ESI-QTOF; MS2
Name: PG 34:2
Class:  PG
Formula: C40H75O10P
Exact mass: 747.006
SMILES: CCCCCCCCCCCCCCCC(=O)OCC(COP(O)(=O)OCC(O)CO)OC(=O)CCCCCCC\C=C/C\C=C/CCCCC
InChI: InChI=1S/C40H75O10P/c1-3-5-7-9-11-13-15-17-18-20-22-24-26-28-30-32-40(44)50-38(36-49-51(45,46)48-34-37(42)33-41)35-47-39(43)31-29-27-25-23-21-19-16-14-12-10-8-6-4-2/h11,13,17-18,37-38,41-42H,3-10,12,14-16,19-36H2,1-2H3,(H,45,46)/b13-11-,18-17-
Instrument: AB Sciex TripleTOF 5600+ system (Q-TOF) equipped with a DuoSpray ion source
Instrument type: LC-ESI-QTOF
Ms type: MS2
Ion mode: POSITIVE
Collision energy: 45V
Column name: Acquity UPLC Peptide BEH C18 column (50*2.1 mm; 1.7 um; 130A)(Waters Co.,Milford, MA, USA)
Retention time: 8.351818
Precursor type: [M+NH4]+
Precursor m/z: 764.5419
Intensity: 35655
m/z	relative intensity
71.085	4
79.054	2
81.07	16
83.085	4
85.1	4
91.054	1
93.071	3
95.085	16
97.1	4
99.118	1
105.071	1
107.086	2
109.101	8
111.116	1
119.083	1
121.101	2
123.117	7
133.1	1
135.113	1
135.122	1
137.133	3
147.112	1
149.133	2
153.128	1
155.009	1
161.135	2
163.149	1
175.146	3
177.159	1
193.158	1
221.225	1
239.238	19
245.227	2
263.236	22
277.218	0
295.252	0
297.276	0
301.248	0
312.29	0
313.268	16
313.285	5
319.263	4
321.276	0
335.276	0
337.273	26
393.244	0
449.253	0
449.279	0
467.279	0
473.256	1
473.284	0
501.467	0
519.468	0
549.476	0
573.637	0
573.681	1
573.709	3
573.757	0
575.157	0
575.269	0
575.388	0
575.501	999
576.254	0
576.51	0
576.682	0
711.486	1
711.509	0
