Mass spectrum: TG 62:12; LC-ESI-QTOF; MS2
Name: TG 62:12
Class:  TAG
Formula: C65H102O6
Exact mass: 979.525
SMILES: CCCCCC\C=C/CCCCCCCCCC(=O)OCC(COC(=O)CC\C=C/C\C=C/C\C=C/C\C=C/C\C=C/C\C=C/CC)OC(=O)CCCCC\C=C/C\C=C/C\C=C/C\C=C/C\C=C/CC
InChI: InChI=1S/C65H102O6/c1-4-7-10-13-16-19-22-25-28-30-32-34-37-40-43-46-49-52-55-58-64(67)70-61-62(60-69-63(66)57-54-51-48-45-42-39-36-27-24-21-18-15-12-9-6-3)71-65(68)59-56-53-50-47-44-41-38-35-33-31-29-26-23-20-17-14-11-8-5-2/h7-8,10-11,16-17,19-21,24-26,28-29,32-35,40-41,43-44,49,52,62H,4-6,9,12-15,18,22-23,27,30-31,36-39,42,45-48,50-51,53-61H2,1-3H3/b10-7-,11-8-,19-16-,20-17-,24-21-,28-25-,29-26-,34-32-,35-33-,43-40-,44-41-,52-49-
Instrument: AB Sciex TripleTOF 5600+ system (Q-TOF) equipped with a DuoSpray ion source
Instrument type: LC-ESI-QTOF
Ms type: MS2
Ion mode: POSITIVE
Collision energy: 45V
Column name: Acquity UPLC Peptide BEH C18 column (50*2.1 mm; 1.7 um; 130A)(Waters Co.,Milford, MA, USA)
Retention time: 14.12791
Precursor type: [M+NH4]+
Precursor m/z: 996.8035
Intensity: 2445
m/z	relative intensity
79.054	34
81.069	41
91.052	41
95.084	43
105.063	34
105.074	62
107.085	69
109.1	41
117.071	34
121.101	44
131.087	34
133.101	41
147.121	43
157.104	43
159.117	41
161.131	34
163.15	33
171.115	133
173.13	75
175.153	64
185.131	103
187.147	62
189.127	34
189.161	91
189.172	41
191.182	35
197.138	34
199.15	48
201.163	97
203.179	344
211.138	41
213.157	34
215.178	48
227.182	41
245.231	44
259.239	34
267.213	44
269.227	217
285.25	26
287.239	97
293.225	38
295.243	48
297.26	34
311.234	55
313.256	68
315.272	34
337.269	55
361.272	104
363.289	27
365.305	41
387.288	48
389.295	91
389.313	267
391.318	27
393.295	22
647.48	112
647.507	231
647.535	42
649.494	78
649.518	197
649.534	126
651.498	62
651.514	69
651.537	324
671.482	34
673.518	72
675.523	999
675.546	516
675.562	228
676.515	34
676.543	55
693.532	13
697.509	27
699.503	31
699.541	111
700.535	13
825.653	34
825.702	166
826.754	13
849.679	13
851.695	27
852.692	8
852.736	34
854.737	13
906.735	51
906.796	50
914.718	48
953.722	119
953.762	76
953.786	51
961.746	34
979.74	48
979.766	91
979.786	90
996.761	239
996.786	452
996.814	405
996.855	77
996.88	41
997.798	41
