Mass spectrum: TG 51:3; LC-ESI-QTOF; MS2
Name: TG 51:3
Class:  TAG
Formula: C54H98O6
Exact mass: 843.372
SMILES: CCCCCCCCCCCCCCC(=O)OCC(COC(=O)CCCCCCCC\C=C/C=C\CCCCC)OC(=O)CCCCCCCCC\C=C/CCCCCC
InChI: InChI=1S/C54H98O6/c1-4-7-10-13-16-19-22-25-27-29-32-35-38-41-44-47-53(56)59-50-51(49-58-52(55)46-43-40-37-34-31-24-21-18-15-12-9-6-3)60-54(57)48-45-42-39-36-33-30-28-26-23-20-17-14-11-8-5-2/h16,19-20,22-23,25,51H,4-15,17-18,21,24,26-50H2,1-3H3/b19-16-,23-20-,25-22-
Instrument: AB Sciex TripleTOF 5600+ system (Q-TOF) equipped with a DuoSpray ion source
Instrument type: LC-ESI-QTOF
Ms type: MS2
Ion mode: POSITIVE
Collision energy: 45V
Column name: Acquity UPLC Peptide BEH C18 column (50*2.1 mm; 1.7 um; 130A)(Waters Co.,Milford, MA, USA)
Retention time: 14.34384
Precursor type: [M+NH4]+
Precursor m/z: 860.7678
Intensity: 4691
m/z	relative intensity
79.054	11
81.07	37
83.084	17
85.098	16
93.072	9
95.085	59
97.103	14
104.991	22
109.102	31
111.12	9
121.101	16
123.117	19
135.117	23
137.133	11
149.132	14
161.134	9
163.149	11
165.166	9
175.148	9
177.167	16
186.987	23
189.165	9
225.215	23
233.229	16
239.242	19
245.216	21
245.229	17
247.243	12
251.231	14
261.22	9
263.235	71
265.259	36
299.254	9
313.286	17
319.266	26
323.263	6
325.272	21
337.273	19
339.286	26
341.299	4
368.951	14
450.933	4
477.398	4
537.492	19
538.484	21
547.478	17
559.477	12
561.487	667
562.469	13
562.491	16
562.511	23
563.499	999
563.518	202
564.501	29
565.521	28
573.478	71
573.499	92
575.493	440
575.515	407
576.489	17
576.521	24
577.513	59
577.534	33
587.48	173
587.507	657
588.5	15
589.517	104
589.547	28
601.496	135
601.519	456
601.542	140
603.519	14
603.544	21
605.544	20
615.535	21
695.576	8
696.551	16
696.579	39
801.698	17
825.74	18
835.652	8
835.73	8
843.692	11
843.741	46
843.798	9
860.76	117
860.793	100
860.839	16
861.733	6
861.794	11
