Mass spectrum: TG 51:5; LC-ESI-QTOF; MS2
Name: TG 51:5
Class:  TAG
Formula: C54H94O6
Exact mass: 839.3399999999999
SMILES: CCCCCCCCCCCCCCC(=O)OCC(COC(=O)CCCCCCCCC\C=C/C=C\C=C/CC)OC(=O)CCCCCCCC\C=C/C=C\CCCCC
InChI: InChI=1S/C54H94O6/c1-4-7-10-13-16-19-22-25-27-29-32-35-38-41-44-47-53(56)59-50-51(49-58-52(55)46-43-40-37-34-31-24-21-18-15-12-9-6-3)60-54(57)48-45-42-39-36-33-30-28-26-23-20-17-14-11-8-5-2/h7,10,13,16-17,19-20,22-23,26,51H,4-6,8-9,11-12,14-15,18,21,24-25,27-50H2,1-3H3/b10-7-,16-13-,20-17-,22-19-,26-23-
Instrument: AB Sciex TripleTOF 5600+ system (Q-TOF) equipped with a DuoSpray ion source
Instrument type: LC-ESI-QTOF
Ms type: MS2
Ion mode: POSITIVE
Collision energy: 45V
Column name: Acquity UPLC Peptide BEH C18 column (50*2.1 mm; 1.7 um; 130A)(Waters Co.,Milford, MA, USA)
Retention time: 13.91977
Precursor type: [M+NH4]+
Precursor m/z: 856.7354
Intensity: 15576
m/z	relative intensity
79.054	16
81.069	38
83.086	18
91.054	8
93.068	31
95.085	52
97.101	16
105.069	9
107.084	16
109.099	37
119.086	10
121.102	43
123.117	18
131.086	8
133.097	11
135.118	30
137.133	16
147.116	15
149.128	16
161.132	23
163.149	31
173.133	15
175.147	27
177.16	11
177.17	10
203.179	9
205.195	26
219.212	10
223.204	19
225.223	29
237.222	25
238.223	13
241.194	8
243.206	21
243.219	12
245.225	38
247.203	9
249.22	8
259.201	11
261.22	94
263.234	120
265.249	12
277.212	4
285.245	5
287.242	3
297.232	4
297.256	3
299.251	20
299.263	12
303.233	5
311.258	35
313.271	9
315.242	4
317.24	18
317.256	18
319.251	7
319.267	23
321.262	5
325.272	5
333.24	5
335.256	13
335.278	5
337.271	185
338.28	6
339.278	20
339.3	8
371.332	3
385.351	4
391.28	7
485.428	8
523.45	7
535.478	12
541.457	7
546.452	15
546.476	7
547.462	79
547.5	9
548.472	218
549.475	204
557.455	54
557.721	6
559.472	999
560.466	8
561.485	683
563.499	12
571.473	85
573.463	36
573.49	118
574.474	72
574.494	191
574.514	31
575.496	408
576.509	12
583.453	30
583.471	51
583.498	16
585.467	39
585.49	78
585.523	7
587.51	33
589.507	7
597.485	652
598.491	9
599.5	712
600.496	60
600.517	28
601.515	80
601.54	20
603.515	9
603.533	10
615.5	6
617.493	7
617.522	10
741.604	2
755.627	2
757.609	2
769.633	4
811.725	2
821.676	8
821.707	29
829.712	7
829.752	2
839.682	39
839.711	182
840.712	2
846.738	5
846.78	4
856.737	233
857.742	2
