Mass spectrum: TG 51:1; LC-ESI-QTOF; MS2
Name: TG 51:1
Class:  TAG
Formula: C54H102O6
Exact mass: 847.404
SMILES: CCCCCCCCCCCCCCCCC(=O)OC(COC(=O)CCCCCCCCCCCCCCC)COC(=O)CCCCCCCCC\C=C/CCCCCC
InChI: InChI=1S/C54H102O6/c1-4-7-10-13-16-19-22-25-27-30-32-35-38-41-44-47-53(56)59-50-51(49-58-52(55)46-43-40-37-34-31-28-24-21-18-15-12-9-6-3)60-54(57)48-45-42-39-36-33-29-26-23-20-17-14-11-8-5-2/h19,22,51H,4-18,20-21,23-50H2,1-3H3/b22-19-
Instrument: AB Sciex TripleTOF 5600+ system (Q-TOF) equipped with a DuoSpray ion source
Instrument type: LC-ESI-QTOF
Ms type: MS2
Ion mode: POSITIVE
Collision energy: 45V
Column name: Acquity UPLC Peptide BEH C18 column (50*2.1 mm; 1.7 um; 130A)(Waters Co.,Milford, MA, USA)
Retention time: 14.94162
Precursor type: [M+NH4]+
Precursor m/z: 864.7971
Intensity: 8614
m/z	relative intensity
71.086	9
79.053	3
81.068	17
83.085	13
85.1	14
93.069	4
95.084	19
97.1	18
99.117	3
109.1	18
111.112	3
111.12	2
121.1	10
123.118	10
125.137	3
135.117	4
137.134	7
139.145	2
149.132	3
151.149	4
163.147	3
165.163	7
179.181	3
221.227	3
225.223	4
239.237	32
247.237	6
247.249	6
253.253	14
265.253	33
279.265	4
281.282	1
282.28	2
299.262	1
313.273	8
313.308	1
327.29	9
339.28	2
339.296	2
341.307	3
355.328	1
454.96	0
537.491	14
549.479	24
549.5	13
551.503	145
563.496	119
563.515	50
565.516	645
566.506	3
566.535	3
575.715	3
577.519	662
578.525	7
579.507	8
579.533	33
579.567	3
589.686	5
591.533	999
591.604	2
592.534	6
593.53	11
593.557	21
605.525	17
605.546	78
605.596	2
619.557	14
619.58	5
813.696	2
813.725	3
813.756	6
829.76	1
847.745	5
847.799	2
864.726	12
864.759	12
864.785	53
864.806	48
864.828	23
864.843	10
865.792	1
