Mass spectrum: TG 52:3; LC-ESI-QTOF; MS2
Name: TG 52:3
Class:  TAG
Formula: C55H100O6
Exact mass: 857.3989999999999
SMILES: CCCCCCCCCCCCCCCC(=O)OCC(COC(=O)CCCCCCCC\C=C/C=C\CCCCC)OC(=O)CCCCCCCCC\C=C/CCCCCC
InChI: InChI=1S/C55H100O6/c1-4-7-10-13-16-19-22-25-27-30-33-36-39-42-45-48-54(57)60-51-52(50-59-53(56)47-44-41-38-35-32-29-24-21-18-15-12-9-6-3)61-55(58)49-46-43-40-37-34-31-28-26-23-20-17-14-11-8-5-2/h16,19-20,22-23,25,52H,4-15,17-18,21,24,26-51H2,1-3H3/b19-16-,23-20-,25-22-
Instrument: AB Sciex TripleTOF 5600+ system (Q-TOF) equipped with a DuoSpray ion source
Instrument type: LC-ESI-QTOF
Ms type: MS2
Ion mode: POSITIVE
Collision energy: 45V
Column name: Acquity UPLC Peptide BEH C18 column (50*2.1 mm; 1.7 um; 130A)(Waters Co.,Milford, MA, USA)
Retention time: 14.46921
Precursor type: [M+NH4]+
Precursor m/z: 874.7866
Intensity: 417
m/z	relative intensity
147.119	72
175.152	108
186.987	108
247.242	72
263.234	155
265.254	72
390.997	72
575.495	369
575.505	405
575.515	369
577.523	999
601.502	554
601.525	221
601.539	184
603.532	264
689.629	72
857.772	192
874.767	163
