Mass spectrum: TG 56:8; LC-ESI-QTOF; MS2
Name: TG 56:8
Class:  TAG
Formula: C59H98O6
Exact mass: 903.427
SMILES: CCCCCC\C=C/CCCCCCCCCC(=O)OCC(COC(=O)CCC\C=C/C\C=C/C\C=C/C\C=C/C\C=C/CC)OC(=O)CCCCCCCC\C=C/C=C\CCCCC
InChI: InChI=1S/C59H98O6/c1-4-7-10-13-16-19-22-25-28-29-32-34-37-40-43-46-49-52-58(61)64-55-56(65-59(62)53-50-47-44-41-38-35-31-27-24-21-18-15-12-9-6-3)54-63-57(60)51-48-45-42-39-36-33-30-26-23-20-17-14-11-8-5-2/h7,10,16,18-21,23-25,27-28,32,34,40,43,56H,4-6,8-9,11-15,17,22,26,29-31,33,35-39,41-42,44-55H2,1-3H3/b10-7-,19-16-,21-18-,23-20-,27-24-,28-25-,34-32-,43-40-
Instrument: AB Sciex TripleTOF 5600+ system (Q-TOF) equipped with a DuoSpray ion source
Instrument type: LC-ESI-QTOF
Ms type: MS2
Ion mode: POSITIVE
Collision energy: 45V
Column name: Acquity UPLC Peptide BEH C18 column (50*2.1 mm; 1.7 um; 130A)(Waters Co.,Milford, MA, USA)
Retention time: 14.04554
Precursor type: [M+NH4]+
Precursor m/z: 920.7708
Intensity: 4746
m/z	relative intensity
81.07	27
83.085	9
91.056	21
93.068	11
95.084	24
105.073	8
107.088	9
109.1	16
117.073	9
119.085	20
121.099	12
123.118	13
131.089	9
133.098	18
135.116	11
157.103	8
159.114	9
161.136	9
163.144	11
171.115	14
173.132	13
175.149	16
177.162	8
185.136	13
187.143	9
189.159	16
199.149	14
201.161	16
203.177	77
213.163	9
245.226	25
259.248	8
261.221	10
263.234	31
263.244	12
269.224	64
269.238	22
285.221	6
287.24	78
297.211	2
317.244	5
319.258	5
319.279	4
321.273	3
335.262	9
337.271	191
337.301	8
339.294	8
341.265	2
343.265	7
361.274	6
365.269	3
391.281	9
433.345	2
461.37	3
531.459	4
543.466	3
549.448	5
549.463	5
549.484	9
573.468	3
573.503	4
597.469	4
597.505	7
597.645	4
599.501	999
601.516	25
617.517	7
621.483	21
621.551	3
623.499	370
623.525	77
625.514	12
625.553	4
639.512	5
641.503	6
649.508	4
693.544	1
711.58	1
725.556	1
739.58	2
763.593	1
775.663	1
777.604	1
779.617	2
781.644	2
789.595	1
791.614	1
793.64	1
805.648	2
807.646	1
819.651	3
838.692	7
838.74	2
875.716	2
885.701	4
885.744	15
903.719	55
903.754	71
903.784	12
920.734	27
920.77	211
920.828	7
920.889	2
921.042	2
