Mass spectrum: TG 53:5; LC-ESI-QTOF; MS2
Name: TG 53:5
Class:  TAG
Formula: C56H98O6
Exact mass: 867.394
SMILES: CCCCCCCCC\C=C/CCCCCC(=O)OCC(COC(=O)CCCCCCCC\C=C/C=C\CCCCC)OC(=O)CCCCCCCC\C=C/C=C\CCCCC
InChI: InChI=1S/C56H98O6/c1-4-7-10-13-16-19-22-25-28-31-34-37-40-43-46-49-55(58)61-52-53(51-60-54(57)48-45-42-39-36-33-30-27-24-21-18-15-12-9-6-3)62-56(59)50-47-44-41-38-35-32-29-26-23-20-17-14-11-8-5-2/h16-17,19-20,22-23,25-26,30,33,53H,4-15,18,21,24,27-29,31-32,34-52H2,1-3H3/b19-16-,20-17-,25-22-,26-23-,33-30-
Instrument: AB Sciex TripleTOF 5600+ system (Q-TOF) equipped with a DuoSpray ion source
Instrument type: LC-ESI-QTOF
Ms type: MS2
Ion mode: POSITIVE
Collision energy: 45V
Column name: Acquity UPLC Peptide BEH C18 column (50*2.1 mm; 1.7 um; 130A)(Waters Co.,Milford, MA, USA)
Retention time: 14.15288
Precursor type: [M+NH4]+
Precursor m/z: 884.7673
Intensity: 41694
m/z	relative intensity
79.053	7
81.069	30
83.085	8
85.099	1
91.053	4
93.069	8
95.085	29
97.064	1
97.101	9
99.081	3
105.07	4
107.085	8
109.101	17
111.079	1
111.115	3
119.085	2
121.1	15
123.117	13
133.101	5
135.116	15
137.133	6
139.112	1
147.118	4
149.133	8
151.147	5
153.128	2
159.121	1
161.132	8
163.149	10
165.162	3
167.142	1
173.131	3
175.147	11
177.164	5
187.149	2
189.162	3
191.179	2
193.16	1
201.165	2
203.183	2
231.211	3
233.212	1
233.226	8
243.212	6
245.228	21
247.242	2
249.222	3
251.236	29
261.22	16
263.196	1
263.237	60
265.254	7
275.239	1
277.207	0
285.212	0
289.25	1
299.268	1
301.254	1
303.266	1
305.241	1
307.269	1
311.26	0
313.279	1
314.277	0
317.246	4
317.26	1
319.263	13
321.276	0
323.255	2
325.274	20
327.283	1
335.252	2
337.273	40
339.29	7
345.277	0
373.347	0
377.269	1
391.285	0
413.387	0
447.361	0
463.379	1
495.455	1
503.408	1
511.456	1
513.45	1
513.473	3
525.464	3
525.486	1
531.445	1
531.481	1
538.484	1
543.467	3
543.492	1
559.474	1
561.487	3
561.512	1
563.489	1
563.508	1
564.505	5
564.532	1
565.51	6
571.465	3
573.474	4
573.497	6
575.495	4
575.524	1
578.509	1
585.485	113
585.681	2
587.501	999
588.487	4
588.516	7
589.516	69
597.468	8
597.494	20
597.614	1
599.501	637
600.5	3
600.522	2
601.515	65
603.517	1
603.542	1
611.484	1
611.508	1
613.502	4
613.525	6
615.533	2
617.512	3
625.516	3
627.518	1
629.545	1
671.601	0
685.556	0
699.557	0
711.632	0
715.592	0
741.604	0
741.651	0
743.611	0
755.602	0
755.653	1
769.637	0
769.672	0
769.695	0
783.651	0
783.679	0
797.669	0
802.684	0
825.684	0
826.675	0
849.719	11
849.749	5
862.706	0
863.685	0
863.706	1
863.741	1
867.669	0
867.742	130
868.72	1
868.767	1
881.986	0
883.69	0
884.635	0
884.769	137
884.989	0
885.748	0
885.787	1
