Mass spectrum: TG 60:13; LC-ESI-QTOF; MS2
Name: TG 60:13
Class:  TAG
Formula: C63H96O6
Exact mass: 949.455
SMILES: CCCCC\C=C/C=C\CCCCCCCCC(=O)OCC(COC(=O)CC\C=C/C\C=C/C\C=C/C\C=C/C\C=C/C\C=C/CC)OC(=O)CCC\C=C/C\C=C/C\C=C/C\C=C/C\C=C/CC
InChI: InChI=1S/C63H96O6/c1-4-7-10-13-16-19-22-25-28-30-31-33-35-38-41-44-47-50-53-56-62(65)68-59-60(58-67-61(64)55-52-49-46-43-40-37-34-27-24-21-18-15-12-9-6-3)69-63(66)57-54-51-48-45-42-39-36-32-29-26-23-20-17-14-11-8-5-2/h7-8,10-11,16-21,24-29,31,33,36,38-39,41,45,47-48,50,60H,4-6,9,12-15,22-23,30,32,34-35,37,40,42-44,46,49,51-59H2,1-3H3/b10-7-,11-8-,19-16-,20-17-,21-18-,27-24-,28-25-,29-26-,33-31-,39-36-,41-38-,48-45-,50-47-
Instrument: AB Sciex TripleTOF 5600+ system (Q-TOF) equipped with a DuoSpray ion source
Instrument type: LC-ESI-QTOF
Ms type: MS2
Ion mode: POSITIVE
Collision energy: 45V
Column name: Acquity UPLC Peptide BEH C18 column (50*2.1 mm; 1.7 um; 130A)(Waters Co.,Milford, MA, USA)
Retention time: 13.76977
Precursor type: [M+NH4]+
Precursor m/z: 966.7532
Intensity: 9017
m/z	relative intensity
77.038	10
79.054	30
81.07	45
83.085	8
91.054	48
93.069	30
95.084	41
105.07	34
107.085	30
109.101	21
117.068	25
119.085	32
121.101	27
123.116	19
129.068	21
131.084	38
131.09	12
133.101	29
135.115	24
141.07	8
143.082	11
145.099	28
147.116	20
149.131	10
155.082	8
157.102	27
159.117	42
161.131	28
163.151	11
169.1	30
171.115	37
173.13	37
175.146	31
181.099	7
183.117	24
185.131	39
187.147	29
189.129	8
189.164	18
195.116	8
197.131	29
199.146	39
201.131	8
201.162	116
203.142	8
203.181	10
209.13	12
211.147	23
213.166	20
215.142	7
215.18	17
223.15	23
225.163	14
227.18	24
237.164	10
239.175	11
241.159	10
245.226	13
263.238	33
265.195	12
267.209	86
269.226	16
283.207	16
283.242	8
285.22	50
289.207	3
291.21	8
293.223	44
295.249	4
309.214	9
311.238	56
319.252	3
319.268	6
335.275	6
337.273	330
338.274	7
339.295	5
341.242	11
357.242	3
359.243	5
359.264	15
363.284	3
365.263	4
367.266	6
383.269	4
385.271	48
391.285	11
391.303	8
413.271	4
459.339	4
471.341	3
485.375	3
499.377	4
513.391	2
529.443	4
537.412	2
547.432	2
547.455	3
553.433	2
555.452	2
573.478	5
591.463	2
593.451	4
595.445	4
595.475	2
603.465	2
619.469	4
619.545	3
621.487	886
622.472	16
622.492	17
622.515	7
623.502	19
639.452	2
645.489	7
647.504	999
648.504	35
648.537	4
649.543	4
665.513	6
667.49	2
669.483	175
669.517	24
670.478	9
671.498	1
685.486	3
687.49	3
769.585	1
825.631	2
827.615	2
839.582	1
839.659	2
851.659	1
865.679	2
867.655	1
879.649	2
884.681	2
895.636	4
895.675	6
895.703	5
931.688	3
931.726	7
949.724	117
949.774	10
949.803	2
950.696	2
950.754	4
966.557	3
966.614	3
966.751	701
967.725	7
967.759	31
967.803	3
