Mass spectrum: TG 55:3; LC-ESI-QTOF; MS2
Name: TG 55:3
Class:  TAG
Formula: C58H106O6
Exact mass: 899.4799999999999
SMILES: CCCCCCCCC\C=C/CCCCCCCC(=O)OCC(COC(=O)CCCCCCCCC\C=C/CCCCCC)OC(=O)CCCCCCCCC\C=C/CCCCCC
InChI: InChI=1S/C58H106O6/c1-4-7-10-13-16-19-22-25-28-31-33-36-39-42-45-48-51-57(60)63-54-55(64-58(61)52-49-46-43-40-37-34-30-27-24-21-18-15-12-9-6-3)53-62-56(59)50-47-44-41-38-35-32-29-26-23-20-17-14-11-8-5-2/h20-21,23-24,28,31,55H,4-19,22,25-27,29-30,32-54H2,1-3H3/b23-20-,24-21-,31-28-
Instrument: AB Sciex TripleTOF 5600+ system (Q-TOF) equipped with a DuoSpray ion source
Instrument type: LC-ESI-QTOF
Ms type: MS2
Ion mode: POSITIVE
Collision energy: 45V
Column name: Acquity UPLC Peptide BEH C18 column (50*2.1 mm; 1.7 um; 130A)(Waters Co.,Milford, MA, USA)
Retention time: 15.03632
Precursor type: [M+NH4]+
Precursor m/z: 916.8322
Intensity: 633
m/z	relative intensity
81.068	35
95.083	16
109.106	13
177.117	13
186.995	13
226.988	24
247.237	20
263.234	27
265.253	33
268.989	13
279.272	17
281.274	6
292.969	6
307.303	6
319.272	6
339.286	27
353.291	6
355.332	10
366.953	6
430.984	6
433.014	10
531.371	17
573.482	20
575.475	16
575.511	78
589.521	92
591.529	25
601.521	303
601.551	48
603.512	110
603.538	449
603.583	24
615.512	16
615.547	76
617.555	999
617.615	21
618.565	39
619.556	357
619.579	168
619.601	51
620.559	20
629.534	34
629.557	72
631.55	27
631.579	37
643.563	86
643.605	16
645.601	16
881.799	6
899.538	6
899.775	21
899.811	44
916.59	27
916.751	65
916.777	90
916.796	113
916.83	131
916.873	48
917.812	16
