Mass spectrum: TG 62:12; LC-ESI-QTOF; MS2
Name: TG 62:12
Class:  TAG
Formula: C65H102O6
Exact mass: 979.525
SMILES: CCCCCC\C=C/CCCCCCCCCC(=O)OCC(COC(=O)CC\C=C/C\C=C/C\C=C/C\C=C/C\C=C/C\C=C/CC)OC(=O)CCCCC\C=C/C\C=C/C\C=C/C\C=C/C\C=C/CC
InChI: InChI=1S/C65H102O6/c1-4-7-10-13-16-19-22-25-28-30-32-34-37-40-43-46-49-52-55-58-64(67)70-61-62(60-69-63(66)57-54-51-48-45-42-39-36-27-24-21-18-15-12-9-6-3)71-65(68)59-56-53-50-47-44-41-38-35-33-31-29-26-23-20-17-14-11-8-5-2/h7-8,10-11,16-17,19-21,24-26,28-29,32-35,40-41,43-44,49,52,62H,4-6,9,12-15,18,22-23,27,30-31,36-39,42,45-48,50-51,53-61H2,1-3H3/b10-7-,11-8-,19-16-,20-17-,24-21-,28-25-,29-26-,34-32-,35-33-,43-40-,44-41-,52-49-
Instrument: AB Sciex TripleTOF 5600+ system (Q-TOF) equipped with a DuoSpray ion source
Instrument type: LC-ESI-QTOF
Ms type: MS2
Ion mode: POSITIVE
Collision energy: 45V
Column name: Acquity UPLC Peptide BEH C18 column (50*2.1 mm; 1.7 um; 130A)(Waters Co.,Milford, MA, USA)
Retention time: 14.13659
Precursor type: [M+NH4]+
Precursor m/z: 996.7997
Intensity: 1458
m/z	relative intensity
81.07	45
91.055	36
95.086	44
105.068	42
109.098	54
121.099	55
131.085	30
157.102	43
159.113	48
161.13	42
171.112	49
173.131	54
183.117	43
185.13	42
189.126	30
197.135	48
199.149	42
201.16	92
211.148	30
213.16	44
225.172	48
227.18	30
247.24	30
265.192	30
265.251	73
285.219	24
291.218	18
293.225	18
311.236	98
313.248	50
315.267	18
321.263	24
325.273	32
339.272	30
339.277	68
339.282	75
339.293	180
359.255	18
367.264	24
385.263	30
391.006	18
393.303	30
447.35	18
575.495	67
575.537	36
589.492	48
589.525	130
609.491	30
611.511	67
621.496	44
623.489	92
623.52	31
635.499	30
649.489	43
649.496	80
649.503	95
649.51	118
649.517	101
649.531	249
651.511	249
651.518	319
651.534	999
651.551	246
651.565	94
651.572	31
677.517	87
677.536	49
677.543	43
677.552	80
677.562	37
677.573	43
677.58	43
693.561	12
697.486	37
697.521	286
697.538	75
697.569	32
699.541	12
826.698	98
891.742	30
908.755	54
914.713	43
914.735	30
914.743	30
914.773	42
979.77	192
979.791	50
996.76	105
996.769	130
996.778	192
996.787	185
996.796	216
996.805	230
996.814	186
996.827	293
997.838	30
