Mass spectrum: TG 58:11; LC-ESI-QTOF; MS2
Name: TG 58:11
Class:  TAG
Formula: C61H96O6
Exact mass: 925.433
SMILES: CCCCCC\C=C/CCCCCCCCCC(=O)OCC(COC(=O)CCC\C=C/C\C=C/C\C=C/C\C=C/C\C=C/CC)OC(=O)CCC\C=C/C\C=C/C\C=C/C\C=C/C\C=C/CC
InChI: InChI=1S/C61H96O6/c1-4-7-10-13-16-19-22-25-28-30-33-36-39-42-45-48-51-54-60(63)66-57-58(56-65-59(62)53-50-47-44-41-38-35-32-27-24-21-18-15-12-9-6-3)67-61(64)55-52-49-46-43-40-37-34-31-29-26-23-20-17-14-11-8-5-2/h7-8,10-11,16-17,19-21,24-26,28-29,33-34,36-37,42-43,45-46,58H,4-6,9,12-15,18,22-23,27,30-32,35,38-41,44,47-57H2,1-3H3/b10-7-,11-8-,19-16-,20-17-,24-21-,28-25-,29-26-,36-33-,37-34-,45-42-,46-43-
Instrument: AB Sciex TripleTOF 5600+ system (Q-TOF) equipped with a DuoSpray ion source
Instrument type: LC-ESI-QTOF
Ms type: MS2
Ion mode: POSITIVE
Collision energy: 45V
Column name: Acquity UPLC Peptide BEH C18 column (50*2.1 mm; 1.7 um; 130A)(Waters Co.,Milford, MA, USA)
Retention time: 13.80433
Precursor type: [M+NH4]+
Precursor m/z: 942.7514
Intensity: 47014
m/z	relative intensity
77.039	3
79.053	13
81.07	30
83.084	5
91.054	17
93.069	18
95.085	29
97.101	3
105.069	11
107.086	14
109.1	19
117.071	8
119.085	11
121.101	21
123.116	9
129.069	5
131.085	13
133.1	14
135.116	13
137.133	3
143.081	4
145.101	11
147.116	8
149.131	10
155.084	3
157.101	5
159.117	16
161.132	18
163.147	13
169.101	10
171.116	14
173.132	13
175.147	16
177.165	5
181.1	5
183.117	8
185.13	9
187.113	3
187.149	10
189.164	7
195.113	3
197.134	8
199.11	3
199.147	12
201.164	16
203.184	4
209.13	8
211.147	12
213.164	10
215.171	3
215.181	7
223.149	10
225.161	5
227.177	15
229.157	4
237.164	5
241.158	4
241.193	3
243.208	11
245.228	8
251.179	5
259.205	4
261.222	28
263.236	30
265.19	4
267.214	5
269.227	9
277.212	2
281.229	1
283.206	2
283.235	2
283.247	2
291.204	2
291.217	3
293.226	41
295.242	2
299.234	2
301.256	1
309.222	8
311.237	50
313.258	1
315.226	2
317.246	11
319.263	9
333.23	1
335.258	34
337.273	54
339.275	1
339.293	2
367.267	6
383.254	2
385.278	3
385.299	1
389.269	1
391.278	1
445.325	1
447.334	1
523.373	1
523.445	2
541.467	2
553.427	1
559.447	1
559.477	6
563.404	1
571.46	3
573.471	3
595.453	4
595.475	10
595.62	2
597.488	999
598.461	2
598.494	11
598.516	4
599.476	5
599.505	30
607.474	2
613.48	1
615.467	1
615.492	3
615.518	2
621.468	3
621.49	6
623.504	4
623.527	1
629.534	2
631.566	2
643.472	2
643.51	2
645.488	237
645.552	1
646.499	1
647.504	277
648.489	1
649.522	3
661.479	1
663.487	1
663.507	2
677.553	0
697.522	0
705.559	0
745.571	0
763.597	0
775.585	0
789.604	0
801.597	1
815.601	0
815.679	0
817.63	0
822.637	1
822.671	2
822.708	1
829.644	0
841.664	0
843.645	0
855.633	1
855.677	0
860.646	0
860.672	1
860.702	1
873.656	1
873.687	11
873.714	1
873.726	2
883.71	1
904.687	0
904.779	1
907.706	4
907.731	4
907.764	1
907.794	0
924.762	0
925.692	12
925.731	90
925.807	1
926.734	2
939.777	1
942.752	313
943.731	3
943.755	3
943.781	2
