Mass spectrum: TG 47:2; LC-ESI-QTOF; MS2
Name: TG 47:2
Class:  TAG
Formula: C50H92O6
Exact mass: 789.28
SMILES: CCCCCCCCCCCCCCC(=O)OC(COC(=O)CCCCCCCCCCCCC)COC(=O)CCCCCCCC\C=C/C=C\CCCCC
InChI: InChI=1S/C50H92O6/c1-4-7-10-13-16-19-22-24-25-26-29-31-34-37-40-43-49(52)55-46-47(45-54-48(51)42-39-36-33-30-27-21-18-15-12-9-6-3)56-50(53)44-41-38-35-32-28-23-20-17-14-11-8-5-2/h16,19,22,24,47H,4-15,17-18,20-21,23,25-46H2,1-3H3/b19-16-,24-22-
Instrument: AB Sciex TripleTOF 5600+ system (Q-TOF) equipped with a DuoSpray ion source
Instrument type: LC-ESI-QTOF
Ms type: MS2
Ion mode: POSITIVE
Collision energy: 45V
Column name: Acquity UPLC Peptide BEH C18 column (50*2.1 mm; 1.7 um; 130A)(Waters Co.,Milford, MA, USA)
Retention time: 14.0113
Precursor type: [M+NH4]+
Precursor m/z: 806.7211
Intensity: 12943
m/z	relative intensity
71.085	19
79.053	12
81.069	47
83.084	36
85.101	14
93.072	12
95.085	54
97.102	22
109.101	60
111.118	15
121.1	27
123.116	34
135.118	13
137.133	10
149.134	18
197.19	13
211.204	29
219.208	18
223.208	12
225.221	39
237.221	43
239.241	11
245.227	20
251.234	11
263.237	42
265.251	16
271.226	9
279.232	2
285.237	7
285.255	3
297.244	3
299.261	13
311.261	16
313.269	18
313.291	5
319.264	11
325.274	3
337.267	5
339.289	3
451.362	2
479.414	7
505.427	13
507.435	211
507.459	41
509.456	401
519.435	31
519.465	7
521.451	292
523.466	7
533.458	370
535.472	999
537.496	6
547.473	791
549.459	19
549.468	23
549.489	129
551.499	33
551.53	11
561.455	35
561.485	442
561.505	92
563.488	37
563.517	43
575.455	8
575.502	305
575.543	9
577.51	12
589.483	8
589.513	64
589.538	11
603.514	11
603.541	23
603.557	9
771.667	2
788.573	1
789.661	6
789.69	7
789.725	7
806.653	4
806.716	87
806.752	10
806.786	3
