Mass spectrum: TG 56:9; LC-ESI-QTOF; MS2
Name: TG 56:9
Class:  TAG
Formula: C59H96O6
Exact mass: 901.4110000000001
SMILES: CCCCC\C=C/C=C\CCCCCCCCC(=O)OCC(COC(=O)CCC\C=C/C\C=C/C\C=C/C\C=C/C\C=C/CC)OC(=O)CCCCCCCC\C=C/C=C\CCCCC
InChI: InChI=1S/C59H96O6/c1-4-7-10-13-16-19-22-25-28-29-32-34-37-40-43-46-49-52-58(61)64-55-56(65-59(62)53-50-47-44-41-38-35-31-27-24-21-18-15-12-9-6-3)54-63-57(60)51-48-45-42-39-36-33-30-26-23-20-17-14-11-8-5-2/h7,10,16-21,23-28,32,34,40,43,56H,4-6,8-9,11-15,22,29-31,33,35-39,41-42,44-55H2,1-3H3/b10-7-,19-16-,20-17-,21-18-,26-23-,27-24-,28-25-,34-32-,43-40-
Instrument: AB Sciex TripleTOF 5600+ system (Q-TOF) equipped with a DuoSpray ion source
Instrument type: LC-ESI-QTOF
Ms type: MS2
Ion mode: POSITIVE
Collision energy: 45V
Column name: Acquity UPLC Peptide BEH C18 column (50*2.1 mm; 1.7 um; 130A)(Waters Co.,Milford, MA, USA)
Retention time: 13.90059
Precursor type: [M+NH4]+
Precursor m/z: 918.7491
Intensity: 21708
m/z	relative intensity
71.086	2
77.037	2
79.054	8
81.07	23
83.085	10
85.065	1
85.1	1
91.054	10
93.069	11
95.085	20
97.063	1
97.101	5
99.078	1
105.07	7
107.085	10
109.101	13
111.08	2
111.118	2
117.07	5
119.086	9
121.1	17
123.115	9
125.096	1
129.068	3
131.086	8
133.101	9
135.117	15
137.095	1
137.131	4
139.113	1
141.067	2
143.085	3
145.1	5
147.116	6
149.098	1
149.132	8
151.147	1
153.129	2
155.085	2
157.102	6
159.117	9
161.132	11
163.111	1
163.149	8
165.164	1
167.085	1
169.1	8
171.116	11
173.095	1
173.131	10
175.111	2
175.147	12
177.163	4
181.101	5
183.116	6
185.133	10
187.112	3
187.147	7
189.126	2
189.163	3
191.177	1
195.116	4
197.133	7
199.112	2
199.147	9
201.127	3
201.163	13
203.142	2
203.18	4
209.132	7
211.148	11
213.163	9
215.142	1
215.177	9
217.159	1
217.196	1
219.211	8
223.148	9
225.162	5
227.145	2
227.179	16
229.157	4
235.154	1
237.161	3
237.22	30
239.179	3
239.238	3
241.156	3
241.167	1
241.191	2
243.173	1
243.212	1
245.226	6
251.18	5
253.195	1
255.176	2
261.22	4
263.236	29
265.195	3
267.211	5
269.187	1
269.226	9
277.213	0
281.195	0
281.225	0
283.201	1
283.241	4
285.222	0
291.213	1
293.226	41
295.246	0
301.251	0
309.219	4
311.241	78
311.26	24
312.247	0
313.253	1
313.274	5
313.289	2
317.241	1
317.256	1
319.263	5
325.226	0
335.259	5
337.274	30
339.29	2
349.249	0
365.267	2
365.282	0
367.264	6
383.257	1
385.27	2
385.287	1
391.281	2
449.355	0
457.327	0
461.368	0
473.36	0
485.361	0
491.394	0
493.418	0
497.385	0
499.452	1
513.392	0
519.418	0
519.456	0
521.435	0
521.447	0
521.461	1
521.483	0
523.376	0
529.448	0
537.444	0
539.406	0
541.424	1
543.416	1
543.445	2
545.443	0
547.46	3
547.492	1
555.433	0
555.459	1
563.416	0
565.451	0
567.446	1
569.448	3
569.474	1
571.434	0
571.471	4
571.66	0
571.7	2
573.487	999
574.481	10
574.501	4
574.521	0
575.505	8
576.508	0
587.502	0
591.47	0
591.486	0
591.504	1
595.457	2
595.486	2
597.452	0
597.49	1
599.502	7
601.523	1
603.538	1
605.533	1
605.562	1
617.511	1
617.542	0
619.454	1
619.474	2
619.495	2
619.526	1
621.489	158
622.475	1
622.498	0
623.502	37
635.483	0
637.479	1
639.5	1
645.48	30
645.509	9
646.496	0
647.503	200
648.485	1
648.516	2
649.512	4
649.538	2
663.493	1
665.509	1
673.51	0
673.534	0
697.546	0
707.572	0
721.572	0
725.569	0
735.611	0
737.572	0
739.595	0
751.571	0
765.594	0
777.608	0
779.616	0
789.592	0
789.656	0
791.604	0
791.66	0
793.647	0
798.658	0
803.643	0
805.611	0
817.643	0
819.639	0
819.678	0
823.677	61
823.776	0
824.688	0
831.619	0
831.667	0
836.637	0
836.672	0
836.696	0
845.657	0
850.684	0
850.724	0
859.69	0
883.685	1
883.716	3
883.748	1
883.797	0
898.904	0
901.7	19
901.731	44
902.716	1
915.85	0
915.913	0
918.594	0
918.68	1
918.748	201
919.703	0
919.739	2
919.766	3
919.802	1
