Mass spectrum: TG 55:7; LC-ESI-QTOF; MS2
Name: TG 55:7
Class:  TAG
Formula: C58H98O6
Exact mass: 891.4159999999999
SMILES: CCCCCCCCCCCCCCCC(=O)OCC(COC(=O)CCCCCCC\C=C/C=C\C=C/C=C\C=C/CCC)OC(=O)CCCCCCCC\C=C/C=C\CCCCC
InChI: InChI=1S/C58H98O6/c1-4-7-10-13-16-19-22-25-27-28-29-31-33-36-39-42-45-48-51-57(60)63-54-55(53-62-56(59)50-47-44-41-38-35-32-24-21-18-15-12-9-6-3)64-58(61)52-49-46-43-40-37-34-30-26-23-20-17-14-11-8-5-2/h10,13,16-17,19-20,22-23,25-29,31,55H,4-9,11-12,14-15,18,21,24,30,32-54H2,1-3H3/b13-10-,19-16-,20-17-,25-22-,26-23-,28-27-,31-29-
Instrument: AB Sciex TripleTOF 5600+ system (Q-TOF) equipped with a DuoSpray ion source
Instrument type: LC-ESI-QTOF
Ms type: MS2
Ion mode: POSITIVE
Collision energy: 45V
Column name: Acquity UPLC Peptide BEH C18 column (50*2.1 mm; 1.7 um; 130A)(Waters Co.,Milford, MA, USA)
Retention time: 14.21813
Precursor type: [M+NH4]+
Precursor m/z: 908.7697
Intensity: 1702
m/z	relative intensity
81.068	31
93.068	63
95.085	70
109.101	45
131.084	31
133.101	31
135.117	31
161.133	50
173.133	44
185.13	38
186.995	31
187.154	57
201.163	135
215.177	38
245.229	31
267.211	52
268.997	32
281.207	19
285.222	70
285.235	31
299.241	102
301.259	21
313.274	76
319.259	25
325.213	50
325.278	53
327.289	64
337.274	134
339.29	83
371.27	20
390.993	20
559.475	50
561.476	226
561.491	84
561.499	97
561.511	52
563.497	83
575.478	58
575.496	233
575.517	180
589.513	999
589.546	136
590.529	50
599.505	109
601.509	57
609.495	76
611.488	103
611.505	174
621.474	83
621.508	70
623.514	90
635.494	122
635.511	52
635.521	51
649.512	72
693.544	128
693.567	38
694.555	206
694.57	103
694.581	116
694.593	64
702.888	12
807.673	14
826.69	239
826.718	187
827.689	12
841.748	12
858.74	33
858.783	20
873.755	19
891.73	50
891.744	57
891.756	57
891.779	25
891.796	19
908.72	72
908.769	220
908.788	57
908.801	45
908.819	27
909.766	29
