Mass spectrum: BMP 40:7; LC-ESI-QTOF; MS2
Name: BMP 40:7
Class:  BMP
Formula: C46H77O10P
Exact mass: 821.088
SMILES: CCCCCCCC\C=C/CCCCCCCC(=O)OC(CO)COP(O)(=O)OCC(CO)OC(=O)CC\C=C/C\C=C/C\C=C/C\C=C/C\C=C/C\C=C/CC
InChI: InChI=1S/C46H77O10P/c1-3-5-7-9-11-13-15-17-19-20-21-22-24-26-28-30-32-34-36-38-46(50)56-44(40-48)42-54-57(51,52)53-41-43(39-47)55-45(49)37-35-33-31-29-27-25-23-18-16-14-12-10-8-6-4-2/h5,7,11,13,17-19,21-23,26,28,32,34,43-44,47-48H,3-4,6,8-10,12,14-16,20,24-25,27,29-31,33,35-42H2,1-2H3,(H,51,52)/b7-5-,13-11-,19-17-,22-21-,23-18-,28-26-,34-32-
Instrument: AB Sciex TripleTOF 5600+ system (Q-TOF) equipped with a DuoSpray ion source
Instrument type: LC-ESI-QTOF
Ms type: MS2
Ion mode: POSITIVE
Collision energy: 45V
Column name: Acquity UPLC Peptide BEH C18 column (50*2.1 mm; 1.7 um; 130A)(Waters Co.,Milford, MA, USA)
Retention time: 8.112721
Precursor type: [M+NH4]+
Precursor m/z: 838.5611
Intensity: 2220
m/z	relative intensity
79.054	12
83.087	12
93.07	19
105.07	19
131.083	10
185.133	10
195.001	29
209.13	9
247.251	9
265.247	9
293.231	9
323.011	5
337.271	5
339.114	5
339.289	999
341.328	5
354.305	5
364.075	5
365.156	7
384.098	5
385.271	729
437.202	13
497.367	4
535.453	17
535.481	52
557.438	10
561.483	17
648.492	5
649.524	29
653.543	8
680.461	7
729.464	34
729.49	21
785.515	10
838.501	4
838.687	7
839.501	10
