Mass spectrum: TG 52:5; LC-ESI-QTOF; MS2
Name: TG 52:5
Class:  TAG
Formula: C55H96O6
Exact mass: 853.367
SMILES: CCCCCCCCCCCCCCCC(=O)OCC(COC(=O)CCCCCCCCC\C=C/C=C\C=C/CC)OC(=O)CCCCCCCC\C=C/C=C\CCCCC
InChI: InChI=1S/C55H96O6/c1-4-7-10-13-16-19-22-25-27-30-33-36-39-42-45-48-54(57)60-51-52(50-59-53(56)47-44-41-38-35-32-29-24-21-18-15-12-9-6-3)61-55(58)49-46-43-40-37-34-31-28-26-23-20-17-14-11-8-5-2/h7,10,13,16-17,19-20,22-23,26,52H,4-6,8-9,11-12,14-15,18,21,24-25,27-51H2,1-3H3/b10-7-,16-13-,20-17-,22-19-,26-23-
Instrument: AB Sciex TripleTOF 5600+ system (Q-TOF) equipped with a DuoSpray ion source
Instrument type: LC-ESI-QTOF
Ms type: MS2
Ion mode: POSITIVE
Collision energy: 45V
Column name: Acquity UPLC Peptide BEH C18 column (50*2.1 mm; 1.7 um; 130A)(Waters Co.,Milford, MA, USA)
Retention time: 14.03932
Precursor type: [M+NH4]+
Precursor m/z: 870.7556
Intensity: 30761
m/z	relative intensity
71.085	3
79.055	10
81.071	37
83.087	12
85.102	2
91.054	5
93.071	17
95.086	38
97.102	10
99.082	2
105.068	3
107.086	12
109.101	22
111.081	3
111.117	5
119.085	4
119.092	3
121.1	21
121.109	3
123.117	15
127.112	2
131.085	4
133.102	11
135.117	19
137.135	9
147.118	7
149.131	10
149.14	3
151.147	3
159.119	4
161.134	12
163.149	13
165.168	4
173.134	5
175.148	10
175.158	4
177.164	5
185.135	2
187.149	4
189.165	5
201.165	2
203.181	3
205.196	2
215.178	2
217.19	2
217.202	2
219.213	13
233.222	2
235.206	4
237.222	29
239.24	10
243.212	21
245.216	3
245.227	19
259.205	3
261.221	62
263.236	75
265.252	15
271.242	1
277.214	1
285.233	1
289.249	3
293.244	1
299.234	2
301.258	1
309.245	1
311.258	26
311.277	4
313.265	7
313.28	8
317.231	5
317.251	22
319.249	2
319.268	15
333.243	2
335.257	7
337.272	34
339.272	1
339.285	7
339.3	6
401.371	1
477.387	1
489.4	1
497.431	1
497.456	1
499.447	3
499.466	2
501.447	1
503.405	1
505.44	2
507.444	1
515.399	1
517.472	1
521.453	1
523.448	5
523.482	2
524.477	1
525.442	1
525.467	8
525.501	1
529.437	1
541.427	1
541.461	2
543.47	2
543.501	1
545.446	1
547.45	9
547.473	19
549.48	1
549.509	1
557.468	1
559.463	1
561.476	1
569.683	1
571.469	222
571.539	1
571.685	2
572.479	1
573.486	999
573.691	1
574.482	3
574.501	3
575.502	493
576.491	2
576.525	2
577.506	4
577.536	3
587.498	1
595.465	1
597.486	267
597.521	27
599.502	630
599.563	6
600.485	2
600.519	1
601.471	2
601.513	58
601.544	6
603.525	2
603.562	1
613.523	1
615.485	2
617.497	2
617.53	1
625.498	4
625.525	9
627.512	1
629.559	1
671.501	0
683.59	1
727.571	1
727.633	0
741.581	0
741.609	1
743.608	0
755.582	1
755.614	1
755.655	0
769.623	1
783.619	1
835.709	37
835.762	1
837.635	2
837.666	15
837.7	18
837.73	4
853.641	0
853.719	185
853.755	22
853.805	1
854.732	1
870.664	1
870.747	182
871.729	1
871.769	1
