Mass spectrum: TG 56:8; LC-ESI-QTOF; MS2
Name: TG 56:8
Class:  TAG
Formula: C59H98O6
Exact mass: 903.427
SMILES: CCCCCC\C=C/CCCCCCCCCC(=O)OCC(COC(=O)CCC\C=C/C\C=C/C\C=C/C\C=C/C\C=C/CC)OC(=O)CCCCCCCC\C=C/C=C\CCCCC
InChI: InChI=1S/C59H98O6/c1-4-7-10-13-16-19-22-25-28-29-32-34-37-40-43-46-49-52-58(61)64-55-56(65-59(62)53-50-47-44-41-38-35-31-27-24-21-18-15-12-9-6-3)54-63-57(60)51-48-45-42-39-36-33-30-26-23-20-17-14-11-8-5-2/h7,10,16,18-21,23-25,27-28,32,34,40,43,56H,4-6,8-9,11-15,17,22,26,29-31,33,35-39,41-42,44-55H2,1-3H3/b10-7-,19-16-,21-18-,23-20-,27-24-,28-25-,34-32-,43-40-
Instrument: AB Sciex TripleTOF 5600+ system (Q-TOF) equipped with a DuoSpray ion source
Instrument type: LC-ESI-QTOF
Ms type: MS2
Ion mode: POSITIVE
Collision energy: 45V
Column name: Acquity UPLC Peptide BEH C18 column (50*2.1 mm; 1.7 um; 130A)(Waters Co.,Milford, MA, USA)
Retention time: 14.05419
Precursor type: [M+NH4]+
Precursor m/z: 920.7667
Intensity: 21862
m/z	relative intensity
79.055	8
81.069	26
83.083	6
91.053	15
93.07	14
95.084	26
97.098	5
105.068	12
107.084	8
109.1	10
117.069	10
119.084	18
121.098	12
121.106	5
123.117	9
131.085	8
133.1	23
135.117	7
137.131	7
143.086	4
145.101	7
147.115	8
149.132	8
157.101	7
159.119	5
161.132	14
163.15	10
171.116	15
173.133	16
175.148	25
177.164	9
185.132	16
187.142	4
187.151	7
189.165	13
191.181	7
199.146	11
201.164	19
203.141	3
203.179	92
213.164	6
215.179	3
227.183	3
241.188	4
241.2	4
243.21	10
245.226	15
247.244	3
259.243	7
261.222	8
263.239	46
265.255	4
267.211	8
269.226	86
271.239	6
283.249	1
285.221	11
287.237	90
289.257	3
295.24	1
299.246	1
307.253	1
311.253	3
313.251	2
315.25	2
317.245	3
317.258	1
319.261	11
325.258	2
335.255	11
335.27	4
337.274	155
338.267	2
339.29	26
343.259	4
359.259	2
361.277	3
363.301	1
369.28	1
391.283	7
459.352	2
525.472	2
529.435	2
531.453	4
543.483	2
549.453	5
549.474	7
573.468	8
573.487	12
573.507	8
575.508	8
597.474	5
597.492	7
599.502	999
600.504	16
601.517	43
617.51	3
617.53	3
621.482	42
621.501	13
623.504	385
624.501	4
624.525	3
625.489	8
625.521	53
641.504	3
647.508	4
649.503	3
649.526	5
709.568	0
739.596	1
751.596	0
765.608	1
777.603	1
779.618	1
779.66	1
791.594	1
791.643	1
793.636	0
805.658	1
819.669	2
819.693	1
838.647	1
838.676	9
838.699	10
838.731	2
875.746	1
885.692	1
885.723	8
885.756	7
903.729	52
903.753	71
904.712	1
904.733	1
904.77	2
913.68	1
913.741	3
920.69	3
920.768	315
921.74	1
921.758	1
921.769	1
921.802	2
