Mass spectrum: ChE 20:4; LC-ESI-QTOF; MS2
Name: ChE 20:4
Class:  CE
Formula: C47H76O2
Exact mass: 673.123
SMILES: CCCCC\C=C/C\C=C/C\C=C/C\C=C/CCCC(=O)O[C@H]1CC[C@]2(C)[C@H]3CC[C@]4(C)[C@H](CC[C@H]4[C@@H]3CC=C2C1)[C@H](C)CCCC(C)C
InChI: InChI=1S/C47H76O2/c1-7-8-9-10-11-12-13-14-15-16-17-18-19-20-21-22-23-27-45(48)49-40-32-34-46(5)39(36-40)28-29-41-43-31-30-42(38(4)26-24-25-37(2)3)47(43,6)35-33-44(41)46/h11-12,14-15,17-18,20-21,28,37-38,40-44H,7-10,13,16,19,22-27,29-36H2,1-6H3/b12-11-,15-14-,18-17-,21-20-/t38-,40+,41+,42-,43+,44+,46+,47-/m1/s1
Instrument: AB Sciex TripleTOF 5600+ system (Q-TOF) equipped with a DuoSpray ion source
Instrument type: LC-ESI-QTOF
Ms type: MS2
Ion mode: POSITIVE
Collision energy: 45V
Column name: Acquity UPLC Peptide BEH C18 column (50*2.1 mm; 1.7 um; 130A)(Waters Co.,Milford, MA, USA)
Retention time: 14.40516
Precursor type: [M+NH4]+
Precursor m/z: 690.6171
Intensity: 212410
m/z	relative intensity
71.084	9
77.039	2
79.053	5
81.069	27
83.085	17
85.1	7
91.054	6
93.069	10
95.085	41
97.1	16
105.069	14
107.085	16
109.101	45
111.117	15
119.085	12
121.1	26
123.117	23
125.131	7
127.147	3
131.087	1
133.101	22
135.116	64
137.131	9
139.146	2
145.101	3
147.116	97
149.132	39
151.148	9
153.163	1
159.116	12
160.639	1
161.132	142
163.148	22
165.164	18
173.132	10
175.148	94
177.163	11
179.179	23
187.148	15
189.164	57
191.181	9
193.195	19
200.156	1
201.164	22
203.18	60
205.194	24
207.211	9
215.18	67
217.194	31
219.211	33
221.228	6
229.195	40
231.208	7
231.223	1
233.225	54
235.242	10
241.193	5
243.211	93
245.227	22
247.242	40
249.256	3
255.207	3
257.226	47
259.243	72
261.258	19
271.243	6
273.258	39
275.275	2
285.258	10
286.373	0
287.274	57
289.293	0
299.271	5
299.285	3
301.29	1
305.247	0
313.29	13
327.301	2
327.317	0
341.318	1
341.333	0
368.186	0
368.208	4
369.006	0
369.233	1
369.351	999
370.001	0
371.301	0
482.947	0
545.509	0
596.011	0
673.584	0
690.148	0
690.603	0
