Mass spectrum: TG 58:9; LC-ESI-QTOF; MS2
Name: TG 58:9
Class:  TAG
Formula: C61H100O6
Exact mass: 929.4649999999999
SMILES: CCCCCC\C=C/CCCCCCCCCC(=O)OCC(COC(=O)CC\C=C/C\C=C/C\C=C/C\C=C/C\C=C/C\C=C/CC)OC(=O)CCCCCCCC\C=C/C=C\CCCCC
InChI: InChI=1S/C61H100O6/c1-4-7-10-13-16-19-22-25-28-29-30-31-34-36-39-42-45-48-51-54-60(63)66-57-58(67-61(64)55-52-49-46-43-40-37-33-27-24-21-18-15-12-9-6-3)56-65-59(62)53-50-47-44-41-38-35-32-26-23-20-17-14-11-8-5-2/h7,10,16,18-21,23-25,27-28,30-31,36,39,45,48,58H,4-6,8-9,11-15,17,22,26,29,32-35,37-38,40-44,46-47,49-57H2,1-3H3/b10-7-,19-16-,21-18-,23-20-,27-24-,28-25-,31-30-,39-36-,48-45-
Instrument: AB Sciex TripleTOF 5600+ system (Q-TOF) equipped with a DuoSpray ion source
Instrument type: LC-ESI-QTOF
Ms type: MS2
Ion mode: POSITIVE
Collision energy: 45V
Column name: Acquity UPLC Peptide BEH C18 column (50*2.1 mm; 1.7 um; 130A)(Waters Co.,Milford, MA, USA)
Retention time: 14.18256
Precursor type: [M+NH4]+
Precursor m/z: 946.783
Intensity: 15816
m/z	relative intensity
79.054	8
81.07	22
83.083	5
91.053	8
93.069	11
95.085	18
97.101	5
105.07	4
107.084	8
109.1	14
111.117	3
117.07	5
119.084	7
121.1	13
123.117	7
131.086	7
133.099	6
135.115	13
145.103	6
147.115	6
149.132	7
155.086	3
157.098	4
159.117	5
161.132	9
163.148	9
169.1	6
171.116	9
173.131	9
175.148	9
181.098	3
183.116	7
185.131	8
187.109	3
187.147	5
189.128	2
189.164	4
195.117	5
197.132	6
199.15	8
201.164	11
203.18	5
209.133	6
211.148	10
213.164	10
215.14	3
215.171	4
215.183	5
223.147	6
225.164	7
227.141	3
227.178	15
237.169	3
239.18	3
241.154	3
245.226	8
247.242	8
251.18	5
263.237	24
265.191	3
265.249	26
265.264	7
267.208	4
269.225	9
283.2	2
283.242	6
285.224	1
291.208	2
293.227	41
295.244	1
309.22	2
311.205	1
311.236	50
313.267	1
319.261	6
319.279	1
321.281	1
323.293	1
337.272	32
338.276	1
339.29	44
340.299	1
365.294	1
367.267	4
383.258	3
385.27	2
391.284	2
393.296	3
393.312	1
485.357	1
513.397	1
527.411	1
527.485	1
555.439	2
555.478	1
573.438	1
573.466	3
573.483	2
575.472	3
577.519	2
598.498	1
599.501	7
599.621	1
599.646	2
601.517	999
602.514	42
602.542	19
602.57	1
603.523	3
623.505	2
625.5	1
625.529	1
647.501	243
648.5	6
648.531	2
649.515	196
649.538	32
650.502	4
650.529	5
663.493	2
665.497	1
665.524	2
667.518	2
671.475	1
671.521	0
672.489	1
672.542	0
673.514	1
673.539	1
675.532	0
737.586	0
765.593	0
767.62	0
805.665	0
807.659	1
819.678	1
821.663	0
829.659	0
831.638	0
833.675	0
845.694	0
847.664	1
851.706	0
859.663	1
859.714	0
864.706	1
887.722	0
911.706	0
911.745	5
911.788	2
927.737	1
928.697	12
928.726	41
928.754	27
928.812	2
929.697	2
929.762	59
930.731	0
930.761	2
930.8	1
943.829	1
946.686	0
946.782	249
946.886	1
947.761	2
947.791	9
947.822	3
