Mass spectrum: AC 20:4; LC-ESI-QTOF; MS2
Name: AC 20:4
Class:  AcylCarnitine
Formula: C27H46NO4
Exact mass: 448.66799999999995
SMILES: CCCCC\C=C\C\C=C\C\C=C\C\C=C\CCCC(=O)OC(CC(O)=O)C[N+](C)(C)C
InChI: InChI=1S/C27H45NO4/c1-5-6-7-8-9-10-11-12-13-14-15-16-17-18-19-20-21-22-27(31)32-25(23-26(29)30)24-28(2,3)4/h9-10,12-13,15-16,18-19,25H,5-8,11,14,17,20-24H2,1-4H3/p+1/b10-9+,13-12+,16-15+,19-18+
Instrument: AB Sciex TripleTOF 5600+ system (Q-TOF) equipped with a DuoSpray ion source
Instrument type: LC-ESI-QTOF
Ms type: MS2
Ion mode: POSITIVE
Collision energy: 45V
Column name: Acquity UPLC Peptide BEH C18 column (50*2.1 mm; 1.7 um; 130A)(Waters Co.,Milford, MA, USA)
Retention time: 5.757488
Precursor type: [M+H]+
Precursor m/z: 448.3427
Intensity: 3831
m/z	relative intensity
77.039	15
79.053	87
81.068	121
83.084	24
84.079	27
85.028	893
91.053	119
93.067	108
93.075	32
95.083	116
95.095	17
103.041	22
105.07	60
107.084	67
109.102	29
117.068	24
119.082	57
121.097	44
121.106	24
129.068	19
131.086	42
133.099	67
135.116	29
144.099	72
144.108	32
147.111	33
157.1	20
161.132	24
171.112	34
177.164	27
185.131	22
189.158	17
203.179	22
269.223	27
279.158	7
287.232	4
291.16	4
293.17	4
305.179	12
305.255	4
319.202	4
389.264	4
424.329	7
424.383	5
446.955	7
448.341	999
448.383	14
