Mass spectrum: TG 47:1; LC-ESI-QTOF; MS2
Name: TG 47:1
Class:  TAG
Formula: C50H94O6
Exact mass: 791.2959999999999
SMILES: CCCCCCCCCCCCCCC(=O)OC(COC(=O)CCCCCCCCCCCCC)COC(=O)CCCCCCCCC\C=C/CCCCCC
InChI: InChI=1S/C50H94O6/c1-4-7-10-13-16-19-22-24-25-26-29-31-34-37-40-43-49(52)55-46-47(45-54-48(51)42-39-36-33-30-27-21-18-15-12-9-6-3)56-50(53)44-41-38-35-32-28-23-20-17-14-11-8-5-2/h19,22,47H,4-18,20-21,23-46H2,1-3H3/b22-19-
Instrument: AB Sciex TripleTOF 5600+ system (Q-TOF) equipped with a DuoSpray ion source
Instrument type: LC-ESI-QTOF
Ms type: MS2
Ion mode: POSITIVE
Collision energy: 45V
Column name: Acquity UPLC Peptide BEH C18 column (50*2.1 mm; 1.7 um; 130A)(Waters Co.,Milford, MA, USA)
Retention time: 14.25494
Precursor type: [M+NH4]+
Precursor m/z: 808.7396
Intensity: 3624
m/z	relative intensity
81.07	70
83.086	31
95.085	127
109.102	31
111.116	39
123.118	31
219.217	39
225.225	55
237.234	23
239.239	79
285.242	15
313.278	47
339.298	18
509.44	144
509.463	192
521.46	87
523.45	124
523.475	224
523.512	40
535.445	171
535.477	999
537.485	771
549.467	233
549.485	682
551.488	71
551.509	103
563.471	47
563.507	666
565.519	31
577.522	94
591.552	25
791.713	31
808.575	25
808.718	65
