Mass spectrum: TG 52:4; LC-ESI-QTOF; MS2
Name: TG 52:4
Class:  TAG
Formula: C55H98O6
Exact mass: 855.3829999999999
SMILES: CCCCCCCCCCCCCCCC(=O)OCC(COC(=O)CCCCCCCCC\C=C/C=C\C=C/CC)OC(=O)CCCCCCCCC\C=C/CCCCCC
InChI: InChI=1S/C55H98O6/c1-4-7-10-13-16-19-22-25-27-30-33-36-39-42-45-48-54(57)60-51-52(50-59-53(56)47-44-41-38-35-32-29-24-21-18-15-12-9-6-3)61-55(58)49-46-43-40-37-34-31-28-26-23-20-17-14-11-8-5-2/h7,10,13,16,19-20,22-23,52H,4-6,8-9,11-12,14-15,17-18,21,24-51H2,1-3H3/b10-7-,16-13-,22-19-,23-20-
Instrument: AB Sciex TripleTOF 5600+ system (Q-TOF) equipped with a DuoSpray ion source
Instrument type: LC-ESI-QTOF
Ms type: MS2
Ion mode: POSITIVE
Collision energy: 45V
Column name: Acquity UPLC Peptide BEH C18 column (50*2.1 mm; 1.7 um; 130A)(Waters Co.,Milford, MA, USA)
Retention time: 14.26964
Precursor type: [M+NH4]+
Precursor m/z: 872.7686
Intensity: 327106
m/z	relative intensity
71.05	1
71.085	12
77.039	3
79.054	13
81.07	58
83.05	1
83.085	22
85.064	2
85.101	10
91.053	8
93.07	16
95.085	60
97.065	2
97.101	16
99.08	4
99.116	2
105.07	7
107.085	14
109.065	0
109.101	41
111.079	2
111.116	5
113.095	2
113.132	1
117.069	0
119.086	8
121.101	22
123.116	31
125.096	2
125.131	2
127.11	2
127.152	0
131.085	1
133.101	11
135.116	17
137.096	1
137.132	16
139.112	2
139.149	1
141.127	1
145.1	1
147.116	8
149.131	14
151.109	0
151.148	9
153.126	4
155.141	1
159.116	3
161.132	21
163.148	20
165.125	1
165.134	0
165.162	7
167.143	2
169.16	0
171.115	1
173.132	4
175.148	23
177.126	0
177.163	9
179.143	2
179.179	2
181.122	0
181.157	2
185.13	1
187.147	2
189.164	9
191.182	2
193.156	3
193.168	0
193.197	0
195.137	0
199.144	1
201.162	2
203.18	4
205.198	1
207.135	0
207.172	2
207.187	0
209.151	0
213.162	0
213.172	0
215.179	1
217.156	0
217.194	2
219.211	4
221.155	0
221.188	1
221.197	0
221.228	5
229.191	0
231.173	0
231.212	0
233.228	1
235.161	0
235.174	1
235.207	0
235.235	0
237.187	0
237.219	7
239.237	49
241.198	0
243.212	9
245.227	47
247.243	4
249.186	1
249.218	0
256.264	2
257.188	0
257.244	1
259.208	0
261.221	33
263.201	0
263.237	154
265.253	11
271.242	0
273.222	0
273.261	0
275.2	0
275.24	1
275.279	0
277.208	0
277.222	0
277.25	0
279.235	1
280.266	0
281.218	0
283.209	0
283.243	1
285.224	0
285.26	0
289.25	1
291.233	0
291.265	0
293.243	0
295.261	0
297.236	0
297.277	0
299.232	1
301.239	0
301.253	2
303.233	0
303.269	1
305.245	0
307.261	0
311.256	5
313.274	54
314.275	0
315.27	0
317.248	10
317.282	0
319.262	30
321.269	0
321.283	1
325.257	0
327.272	0
329.256	0
329.292	0
331.248	0
331.267	0
331.294	0
331.312	0
333.235	0
333.251	0
333.279	0
335.257	4
335.284	0
336.22	0
337.273	44
339.29	13
341.319	0
343.259	0
343.308	0
345.266	0
345.278	0
345.312	0
347.281	0
351.256	0
357.317	0
359.299	0
359.323	0
359.337	0
363.242	0
363.294	0
365.285	0
367.304	0
373.312	0
373.345	1
375.29	0
375.332	0
377.26	0
377.28	0
385.312	0
385.348	0
385.381	0
387.316	0
387.344	0
387.36	0
391.276	0
391.292	0
393.303	0
399.349	0
399.371	0
401.373	0
403.282	0
403.359	0
405.291	0
405.369	0
409.351	0
411.37	0
413.357	0
413.377	0
415.366	0
417.296	0
417.371	0
419.307	0
423.354	0
425.375	0
427.369	0
427.402	0
429.363	0
431.318	0
431.353	0
431.39	0
435.346	0
437.364	0
439.385	0
441.363	0
443.383	0
443.412	0
445.406	0
447.355	0
449.358	0
451.355	0
451.383	1
457.403	0
459.38	0
461.348	0
461.373	0
463.375	0
465.386	0
465.407	0
473.4	0
475.37	0
475.397	0
479.396	0
481.457	0
487.369	1
487.416	0
489.389	1
491.406	0
499.451	1
501.38	0
501.401	0
501.448	1
501.466	1
501.483	1
503.395	0
507.452	3
515.406	0
517.43	0
517.462	0
519.482	0
523.454	0
525.429	0
525.464	14
527.47	0
527.497	0
529.429	0
535.452	0
535.487	0
543.453	2
543.479	7
543.502	1
545.453	0
545.482	0
547.459	0
547.48	1
549.484	3
549.51	0
559.476	1
561.474	0
561.497	1
563.485	0
563.513	0
571.475	3
571.701	0
573.486	314
573.674	0
573.7	2
574.48	0
575.395	1
575.499	999
576.282	0
576.505	7
577.515	116
581.456	0
581.482	0
581.502	1
587.484	1
587.507	0
589.512	1
589.536	0
591.499	0
597.587	0
597.62	2
597.654	1
598.481	0
599.389	0
599.499	860
600.504	2
600.528	1
601.515	240
603.493	0
603.531	8
615.484	1
615.504	0
615.522	0
617.515	3
617.553	0
627.544	1
633.506	0
647.522	0
671.589	0
673.514	0
673.551	0
675.54	0
685.617	0
687.562	0
689.559	0
699.594	0
701.545	0
701.582	0
703.616	0
711.614	0
715.569	0
715.629	0
717.594	0
725.604	0
729.594	1
729.647	0
731.597	0
731.637	0
739.63	0
743.567	0
743.608	1
743.632	1
743.655	1
745.631	0
745.67	0
753.644	0
757.59	0
757.633	1
757.666	1
757.71	0
771.637	0
771.663	1
771.698	0
785.648	0
785.677	0
837.728	26
839.668	0
839.708	5
839.74	1
839.768	0
853.029	0
853.09	0
855.497	0
855.738	152
856.722	0
856.764	0
870.013	0
870.084	0
871.644	0
871.946	0
872.551	0
872.766	108
873.733	0
873.783	0
873.816	0
873.994	0
874.44	0
