Mass spectrum: TG 52:6; LC-ESI-QTOF; MS2
Name: TG 52:6
Class:  TAG
Formula: C55H94O6
Exact mass: 851.3509999999999
SMILES: CCCCCCCCCCCCCCCC(=O)OCC(COC(=O)CCCCCCCCC\C=C/C=C\C=C/CC)OC(=O)CCCCCCCCC\C=C/C=C\C=C/CC
InChI: InChI=1S/C55H94O6/c1-4-7-10-13-16-19-22-25-27-30-33-36-39-42-45-48-54(57)60-51-52(50-59-53(56)47-44-41-38-35-32-29-24-21-18-15-12-9-6-3)61-55(58)49-46-43-40-37-34-31-28-26-23-20-17-14-11-8-5-2/h7-8,10-11,13-14,16-17,19-20,22-23,52H,4-6,9,12,15,18,21,24-51H2,1-3H3/b10-7-,11-8-,16-13-,17-14-,22-19-,23-20-
Instrument: AB Sciex TripleTOF 5600+ system (Q-TOF) equipped with a DuoSpray ion source
Instrument type: LC-ESI-QTOF
Ms type: MS2
Ion mode: POSITIVE
Collision energy: 45V
Column name: Acquity UPLC Peptide BEH C18 column (50*2.1 mm; 1.7 um; 130A)(Waters Co.,Milford, MA, USA)
Retention time: 13.93179
Precursor type: [M+NH4]+
Precursor m/z: 868.7368
Intensity: 2442
m/z	relative intensity
81.072	81
95.086	95
121.101	54
203.183	53
243.214	53
245.222	56
261.218	110
261.234	89
263.237	101
285.24	40
287.23	53
287.243	40
289.207	20
292.96	26
311.264	60
313.267	35
317.246	40
319.269	20
335.255	40
337.265	33
337.28	89
339.285	47
398.928	33
414.963	20
495.446	108
517.433	67
519.43	41
521.451	66
541.411	40
541.44	40
547.446	89
547.476	364
547.51	41
569.442	165
569.479	81
571.441	130
571.461	469
571.478	492
571.5	69
573.459	188
573.482	747
573.503	435
575.496	77
595.456	68
595.479	239
597.486	613
597.521	82
599.491	199
599.52	151
601.507	88
601.543	47
623.514	95
651.521	42
726.974	26
797.619	237
797.661	999
797.688	504
797.721	107
833.686	47
833.721	40
851.687	74
851.708	109
851.735	116
868.677	54
868.721	214
868.753	178
