Mass spectrum: TG 58:9; LC-ESI-QTOF; MS2
Name: TG 58:9
Class:  TAG
Formula: C61H100O6
Exact mass: 929.4649999999999
SMILES: CCCCCC\C=C/CCCCCCCCCC(=O)OCC(COC(=O)CC\C=C/C\C=C/C\C=C/C\C=C/C\C=C/C\C=C/CC)OC(=O)CCCCCCCC\C=C/C=C\CCCCC
InChI: InChI=1S/C61H100O6/c1-4-7-10-13-16-19-22-25-28-29-30-31-34-36-39-42-45-48-51-54-60(63)66-57-58(67-61(64)55-52-49-46-43-40-37-33-27-24-21-18-15-12-9-6-3)56-65-59(62)53-50-47-44-41-38-35-32-26-23-20-17-14-11-8-5-2/h7,10,16,18-21,23-25,27-28,30-31,36,39,45,48,58H,4-6,8-9,11-15,17,22,26,29,32-35,37-38,40-44,46-47,49-57H2,1-3H3/b10-7-,19-16-,21-18-,23-20-,27-24-,28-25-,31-30-,39-36-,48-45-
Instrument: AB Sciex TripleTOF 5600+ system (Q-TOF) equipped with a DuoSpray ion source
Instrument type: LC-ESI-QTOF
Ms type: MS2
Ion mode: POSITIVE
Collision energy: 45V
Column name: Acquity UPLC Peptide BEH C18 column (50*2.1 mm; 1.7 um; 130A)(Waters Co.,Milford, MA, USA)
Retention time: 14.18024
Precursor type: [M+NH4]+
Precursor m/z: 946.7829
Intensity: 32506
m/z	relative intensity
77.038	2
79.053	8
81.069	19
83.084	5
91.053	7
93.069	9
95.085	20
97.101	6
105.068	6
107.083	6
109.1	13
111.115	3
117.068	4
119.084	5
121.1	14
123.116	9
131.084	5
133.103	6
135.117	8
137.131	4
143.083	3
145.102	6
147.12	2
149.133	6
151.146	3
157.101	4
159.116	7
161.13	9
163.146	9
165.162	2
169.099	4
171.117	11
173.131	10
175.147	10
177.166	3
181.101	4
183.117	6
185.129	6
187.11	3
187.145	5
189.162	4
195.115	4
197.132	6
199.146	5
201.123	2
201.163	11
203.177	3
209.131	5
211.148	11
213.161	8
215.139	2
215.178	6
223.147	8
225.161	6
227.177	14
229.16	2
237.163	7
241.152	2
245.225	6
247.241	9
251.178	3
263.237	25
265.195	3
265.251	25
267.209	5
269.227	9
279.207	1
283.202	1
283.242	5
291.196	1
291.215	2
293.225	38
295.246	1
307.215	1
309.22	4
311.235	55
313.253	1
319.262	7
321.27	1
321.287	1
335.26	1
337.274	21
339.287	45
365.26	1
367.246	1
367.266	4
383.267	1
385.273	2
391.285	3
393.29	1
393.302	2
393.317	1
435.355	0
445.338	1
473.356	0
483.357	0
485.362	1
487.374	1
489.374	0
513.387	1
515.422	0
521.452	1
527.413	0
527.486	0
537.426	0
539.421	0
545.48	1
550.486	1
555.452	2
557.455	1
569.46	1
571.476	1
572.473	2
573.452	3
573.48	3
573.503	2
574.512	0
575.477	6
579.426	0
591.489	0
595.486	0
596.484	1
597.507	0
598.488	1
599.496	6
599.527	1
599.605	1
599.634	2
601.516	999
602.478	1
602.519	11
603.535	4
603.564	1
623.489	1
623.509	1
624.507	2
625.519	0
645.454	0
645.491	1
647.5	227
648.506	1
649.514	195
650.518	2
651.522	0
665.508	3
667.526	1
673.508	1
739.585	0
765.578	0
779.631	0
789.626	0
793.648	0
805.621	0
817.651	0
819.614	0
819.674	0
826.681	0
826.726	0
833.653	0
845.656	0
847.671	1
851.693	4
851.743	1
852.715	114
853.699	1
859.686	1
861.703	0
864.681	0
864.711	1
877.719	0
878.734	2
887.729	0
901.755	0
911.729	3
911.766	4
929.753	70
929.873	0
930.758	1
943.816	0
946.702	0
946.78	221
947.772	2
947.798	2
947.834	0
