Mass spectrum: TG 54:6; LC-ESI-QTOF; MS2
Name: TG 54:6
Class:  TAG
Formula: C57H98O6
Exact mass: 879.405
SMILES: CCCCCC\C=C/CCCCCCCCCC(=O)OCC(COC(=O)CCCCCCCCC\C=C/C=C\C=C/CC)OC(=O)CCCCCCCC\C=C/C=C\CCCCC
InChI: InChI=1S/C57H98O6/c1-4-7-10-13-16-19-22-25-28-31-34-37-40-43-46-49-55(58)61-52-54(63-57(60)51-48-45-42-39-36-33-30-27-24-21-18-15-12-9-6-3)53-62-56(59)50-47-44-41-38-35-32-29-26-23-20-17-14-11-8-5-2/h7,10,13,16,18-24,27,54H,4-6,8-9,11-12,14-15,17,25-26,28-53H2,1-3H3/b10-7-,16-13-,21-18-,22-19-,23-20-,27-24-
Instrument: AB Sciex TripleTOF 5600+ system (Q-TOF) equipped with a DuoSpray ion source
Instrument type: LC-ESI-QTOF
Ms type: MS2
Ion mode: POSITIVE
Collision energy: 45V
Column name: Acquity UPLC Peptide BEH C18 column (50*2.1 mm; 1.7 um; 130A)(Waters Co.,Milford, MA, USA)
Retention time: 14.08112
Precursor type: [M+NH4]+
Precursor m/z: 896.7681
Intensity: 1135934
m/z	relative intensity
71.047	1
71.085	4
77.038	7
79.054	32
81.069	95
83.05	1
83.085	32
85.064	2
85.101	3
91.054	22
93.069	46
95.085	99
97.063	1
97.101	20
99.08	8
105.07	18
107.085	36
109.101	72
111.08	4
111.116	7
113.096	6
117.069	2
119.085	24
121.101	56
123.116	57
125.095	4
125.134	1
127.111	4
131.085	7
133.101	33
135.116	46
137.095	1
137.132	29
139.112	4
141.128	3
145.101	5
147.116	29
149.132	37
151.113	2
151.148	17
153.126	7
155.143	1
157.101	3
159.116	9
161.132	54
163.147	51
165.128	3
165.164	12
167.141	5
171.117	4
173.132	13
175.148	59
177.124	1
177.164	21
179.141	3
179.179	4
181.159	3
185.132	3
187.147	8
189.163	25
191.141	1
191.179	7
193.158	8
193.194	1
195.139	1
195.173	1
197.132	1
199.148	3
201.163	8
203.179	11
205.156	0
205.196	3
207.134	1
207.174	7
207.208	0
209.153	1
211.141	0
213.163	3
215.179	3
217.161	1
217.193	6
219.169	1
219.211	4
221.148	1
221.191	4
221.226	1
223.17	1
225.164	0
227.175	2
229.194	2
231.17	1
231.211	2
233.186	0
233.226	4
235.17	4
235.242	2
237.183	1
237.222	1
241.194	3
243.211	28
245.226	117
247.241	9
249.185	4
257.22	1
259.207	6
259.239	1
261.222	101
263.236	354
265.252	21
269.23	0
271.203	0
271.236	1
271.251	0
273.187	0
273.217	0
273.23	0
273.25	0
273.263	0
275.203	1
275.236	5
275.273	0
277.215	2
277.251	1
279.232	2
280.256	0
280.272	0
281.209	0
281.228	0
283.204	0
283.229	0
283.242	1
285.222	1
285.255	1
287.237	1
287.278	0
289.209	0
289.224	0
289.242	1
289.256	4
291.221	0
291.234	1
291.27	0
293.225	0
293.24	0
293.253	0
295.238	0
297.22	0
297.251	0
299.221	0
299.236	2
301.253	6
303.229	0
303.267	3
305.247	2
307.252	0
311.235	0
311.255	2
311.272	0
312.242	0
313.251	1
313.272	0
313.284	0
314.271	0
315.233	1
315.268	1
315.285	0
317.246	31
317.279	1
319.262	70
321.275	4
321.295	0
325.273	0
327.263	0
327.281	0
329.241	1
329.272	0
329.289	0
331.259	1
331.299	1
333.229	0
333.243	1
333.256	0
333.276	0
333.29	0
335.255	17
336.221	0
337.273	222
339.288	35
341.282	0
341.309	0
343.253	0
343.291	0
343.307	0
345.275	2
345.299	1
345.314	0
345.325	0
347.298	0
353.26	1
353.31	0
357.282	0
357.311	1
359.288	1
359.305	0
359.329	2
361.279	0
361.306	0
363.25	0
363.291	0
365.271	1
367.283	0
369.311	0
371.327	0
373.308	0
373.346	1
375.3	0
375.322	0
377.263	1
377.293	0
381.316	0
383.33	0
385.313	0
385.343	2
387.319	0
387.337	0
387.362	2
389.27	0
389.337	0
391.272	0
391.29	2
393.306	0
393.321	0
395.325	0
397.344	0
399.333	0
399.36	2
401.344	1
401.379	1
403.283	1
403.36	2
405.3	1
409.348	0
411.351	0
411.368	0
413.339	1
413.372	2
415.356	1
415.394	0
417.304	0
417.334	0
417.37	2
419.346	0
423.386	0
425.377	1
427.36	2
427.394	1
429.365	0
429.383	0
431.311	0
431.338	0
431.359	0
431.388	1
433.331	0
433.376	0
437.365	0
439.356	0
441.376	1
441.418	0
443.376	0
443.398	0
445.325	0
445.353	1
445.378	0
445.4	0
447.33	0
447.36	0
449.37	0
451.389	0
455.386	0
459.345	0
459.376	1
459.401	0
461.356	1
461.376	0
463.365	0
467.385	0
473.361	1
473.385	1
475.356	1
475.381	4
487.363	1
487.378	2
489.389	2
489.406	1
496.448	2
501.393	2
501.408	1
503.401	1
503.424	1
505.414	1
505.439	3
507.456	8
515.405	4
515.43	1
523.45	7
523.474	3
525.466	47
527.413	0
527.479	1
529.422	1
531.415	1
541.46	6
543.475	37
549.489	3
550.489	13
551.494	13
559.471	3
571.472	2
573.486	14
575.496	1
576.481	1
576.511	6
577.505	1
577.525	1
581.494	4
585.473	2
585.494	2
587.496	1
597.487	508
598.486	2
599.356	1
599.381	1
599.501	999
600.148	6
600.53	232
600.745	25
600.778	1
600.911	30
601.101	24
601.294	2
601.316	1
601.515	499
603.533	9
603.565	0
611.503	1
611.524	1
613.471	1
613.5	4
613.53	2
613.554	1
615.464	1
615.498	13
617.515	25
622.499	2
623.493	6
625.485	1
625.516	14
627.532	1
643.502	1
657.512	1
671.488	0
671.519	1
671.552	0
675.539	0
681.564	0
681.598	0
683.519	0
683.547	0
683.589	0
685.515	0
685.543	1
695.565	0
695.595	0
697.536	0
697.582	0
699.551	1
699.587	0
709.567	0
709.601	0
709.632	0
711.557	0
713.555	0
723.592	0
723.616	0
723.637	0
725.53	0
725.578	0
725.628	0
727.556	0
727.576	0
727.614	0
729.615	0
735.589	0
737.606	0
737.658	0
739.556	0
739.578	0
739.621	0
739.655	0
741.585	0
741.612	0
741.633	0
743.63	0
749.602	0
749.658	0
751.65	0
753.581	0
753.607	1
753.63	1
753.656	0
755.604	0
755.622	0
755.657	0
757.648	0
763.617	0
763.648	0
767.568	0
767.606	3
767.637	4
767.674	1
769.624	0
769.643	0
769.666	0
769.705	0
777.628	0
781.589	0
781.622	5
781.651	2
781.68	2
783.648	0
787.698	0
787.724	0
795.604	0
795.642	3
795.675	1
795.715	0
805.7	0
805.729	0
809.649	1
809.686	0
823.676	0
823.707	0
837.692	0
843.726	0
861.733	69
862.742	0
876.971	0
877.018	0
877.7	0
878.828	0
879.549	0
879.74	236
880.718	0
880.746	1
880.784	0
881.038	0
882.642	0
893.133	0
893.915	0
893.94	0
893.963	0
893.997	0
895.838	0
896.289	0
896.492	0
896.613	0
896.767	118
897.763	1
897.806	0
898.063	0
