Mass spectrum: TG 55:2; LC-ESI-QTOF; MS2
Name: TG 55:2
Class:  TAG
Formula: C58H108O6
Exact mass: 901.496
SMILES: CCCCCCCCCCCCCCCCC(=O)OCC(COC(=O)CCCCCCCCC\C=C/CCCCCCCC)OC(=O)CCCCCCCCC\C=C/CCCCCC
InChI: InChI=1S/C58H108O6/c1-4-7-10-13-16-19-22-25-28-29-31-33-36-39-42-45-48-51-57(60)63-54-55(53-62-56(59)50-47-44-41-38-35-32-27-24-21-18-15-12-9-6-3)64-58(61)52-49-46-43-40-37-34-30-26-23-20-17-14-11-8-5-2/h20,23,25,28,55H,4-19,21-22,24,26-27,29-54H2,1-3H3/b23-20-,28-25-
Instrument: AB Sciex TripleTOF 5600+ system (Q-TOF) equipped with a DuoSpray ion source
Instrument type: LC-ESI-QTOF
Ms type: MS2
Ion mode: POSITIVE
Collision energy: 45V
Column name: Acquity UPLC Peptide BEH C18 column (50*2.1 mm; 1.7 um; 130A)(Waters Co.,Milford, MA, USA)
Retention time: 15.40936
Precursor type: [M+NH4]+
Precursor m/z: 918.8516
Intensity: 518
m/z	relative intensity
81.071	27
95.083	23
97.103	13
111.116	17
165.162	17
245.225	15
262.974	68
263.001	23
263.239	31
265.254	37
267.263	11
269.008	11
281.286	19
293.28	11
339.293	20
341.308	15
344.98	96
348.988	7
383.355	11
402.917	11
408.894	7
426.984	11
451.025	7
508.998	44
575.494	105
575.53	31
577.508	31
589.53	28
591.52	44
591.536	68
603.516	227
603.531	159
603.545	328
605.522	24
605.552	177
605.581	28
617.518	40
617.549	278
617.57	86
617.58	32
619.566	999
620.566	21
621.548	40
621.585	238
622.586	24
631.568	76
631.596	23
645.564	89
645.589	121
647.603	28
690.934	7
716.968	7
883.817	7
901.836	19
918.746	31
918.818	56
918.852	137
918.926	15
919.838	15
