Mass spectrum: TG 52:7; LC-ESI-QTOF; MS2
Name: TG 52:7
Class:  TAG
Formula: C55H92O6
Exact mass: 849.3349999999999
SMILES: CCCCCCCCCCCCCC(=O)OCC(COC(=O)CCC\C=C/C\C=C/C\C=C/C\C=C/C\C=C/CC)OC(=O)CCCCCCCC\C=C/C=C\CCCCC
InChI: InChI=1S/C55H92O6/c1-4-7-10-13-16-19-22-24-26-27-29-30-33-36-39-42-45-48-54(57)60-51-52(50-59-53(56)47-44-41-38-35-32-21-18-15-12-9-6-3)61-55(58)49-46-43-40-37-34-31-28-25-23-20-17-14-11-8-5-2/h7,10,16-17,19-20,23-26,29-30,36,39,52H,4-6,8-9,11-15,18,21-22,27-28,31-35,37-38,40-51H2,1-3H3/b10-7-,19-16-,20-17-,25-23-,26-24-,30-29-,39-36-
Instrument: AB Sciex TripleTOF 5600+ system (Q-TOF) equipped with a DuoSpray ion source
Instrument type: LC-ESI-QTOF
Ms type: MS2
Ion mode: POSITIVE
Collision energy: 45V
Column name: Acquity UPLC Peptide BEH C18 column (50*2.1 mm; 1.7 um; 130A)(Waters Co.,Milford, MA, USA)
Retention time: 13.78609
Precursor type: [M+NH4]+
Precursor m/z: 866.7219
Intensity: 2605
m/z	relative intensity
81.071	24
83.083	12
91.052	19
93.072	16
95.085	33
105.069	13
107.085	11
109.098	20
117.068	11
119.086	12
121.097	19
123.116	13
131.09	14
133.103	13
135.116	20
159.113	16
161.132	17
163.147	10
171.117	11
173.132	24
175.146	16
183.116	10
185.134	20
187.147	22
189.161	15
199.146	13
201.163	70
211.147	13
211.209	39
213.162	11
225.163	17
231.173	13
237.223	17
245.226	15
263.235	17
267.213	45
281.208	5
283.202	7
283.223	9
285.214	56
285.225	47
285.232	48
285.247	37
293.23	6
311.249	22
311.264	20
313.276	7
319.266	8
337.273	64
337.287	16
339.299	11
341.253	5
359.261	7
391.306	4
456.955	4
459.374	3
521.447	36
521.467	34
545.449	21
545.476	6
547.473	999
548.486	20
551.488	7
565.465	7
567.424	28
567.449	57
569.449	127
569.468	48
569.479	25
569.489	13
571.478	17
571.492	8
571.508	7
573.479	15
575.501	11
593.433	12
593.453	29
593.47	9
593.48	6
593.503	11
593.538	7
595.455	19
595.471	58
595.486	18
595.508	8
597.491	19
599.494	17
601.505	36
601.528	69
619.477	12
621.463	31
621.484	117
621.514	18
621.525	11
621.534	9
784.633	4
788.573	8
806.607	8
831.687	6
847.679	820
847.731	34
847.743	17
848.666	10
848.712	9
849.645	4
849.69	47
849.718	32
849.737	10
866.687	26
866.697	40
866.715	116
866.741	39
866.751	36
866.763	27
866.786	9
