Mass spectrum: TG 64:15; LC-ESI-QTOF; MS2
Name: TG 64:15
Class:  TAG
Formula: C67H100O6
Exact mass: 1001.531
SMILES: CCCCCCCC\C=C/C\C=C/C\C=C/CCCC(=O)OCC(COC(=O)CC\C=C/C\C=C/C\C=C/C\C=C/C\C=C/C\C=C/CC)OC(=O)CC\C=C/C\C=C/C\C=C/C\C=C/C\C=C/C\C=C/CC
InChI: InChI=1S/C67H100O6/c1-4-7-10-13-16-19-22-25-28-31-33-36-39-42-45-48-51-54-57-60-66(69)72-63-64(62-71-65(68)59-56-53-50-47-44-41-38-35-30-27-24-21-18-15-12-9-6-3)73-67(70)61-58-55-52-49-46-43-40-37-34-32-29-26-23-20-17-14-11-8-5-2/h7-8,10-11,16-17,19-20,25-30,33-34,36-38,41-43,45-47,50-52,54-55,64H,4-6,9,12-15,18,21-24,31-32,35,39-40,44,48-49,53,56-63H2,1-3H3/b10-7-,11-8-,19-16-,20-17-,28-25-,29-26-,30-27-,36-33-,37-34-,41-38-,45-42-,46-43-,50-47-,54-51-,55-52-
Instrument: AB Sciex TripleTOF 5600+ system (Q-TOF) equipped with a DuoSpray ion source
Instrument type: LC-ESI-QTOF
Ms type: MS2
Ion mode: POSITIVE
Collision energy: 45V
Column name: Acquity UPLC Peptide BEH C18 column (50*2.1 mm; 1.7 um; 130A)(Waters Co.,Milford, MA, USA)
Retention time: 13.95918
Precursor type: [M+NH4]+
Precursor m/z: 1018.784
Intensity: 572
m/z	relative intensity
81.069	31
91.055	24
107.085	19
119.084	15
131.083	23
133.102	15
171.118	19
173.13	27
175.151	19
197.132	19
215.179	15
283.222	13
289.254	11
293.222	27
309.229	13
311.23	31
345.272	9
351.228	13
363.262	13
363.294	20
385.269	15
575.507	23
596.467	20
597.459	35
597.493	23
599.494	15
645.494	44
647.504	37
649.518	16
669.502	48
671.485	37
671.509	23
673.509	473
673.555	68
695.49	73
695.512	44
697.521	7
849.702	11
853.713	9
854.736	31
897.7	40
922.82	19
925.666	56
925.703	485
925.733	999
925.775	112
925.822	27
926.697	19
949.719	23
950.718	92
950.77	19
1001.775	36
1018.758	63
1018.777	68
1018.799	104
