Mass spectrum: TG 51:1; LC-ESI-QTOF; MS2
Name: TG 51:1
Class:  TAG
Formula: C54H102O6
Exact mass: 847.404
SMILES: CCCCCCCCCCCCCCCCC(=O)OC(COC(=O)CCCCCCCCCCCCCCC)COC(=O)CCCCCCCCC\C=C/CCCCCC
InChI: InChI=1S/C54H102O6/c1-4-7-10-13-16-19-22-25-27-30-32-35-38-41-44-47-53(56)59-50-51(49-58-52(55)46-43-40-37-34-31-28-24-21-18-15-12-9-6-3)60-54(57)48-45-42-39-36-33-29-26-23-20-17-14-11-8-5-2/h19,22,51H,4-18,20-21,23-50H2,1-3H3/b22-19-
Instrument: AB Sciex TripleTOF 5600+ system (Q-TOF) equipped with a DuoSpray ion source
Instrument type: LC-ESI-QTOF
Ms type: MS2
Ion mode: POSITIVE
Collision energy: 45V
Column name: Acquity UPLC Peptide BEH C18 column (50*2.1 mm; 1.7 um; 130A)(Waters Co.,Milford, MA, USA)
Retention time: 14.94702
Precursor type: [M+NH4]+
Precursor m/z: 864.8012
Intensity: 3049
m/z	relative intensity
71.086	12
81.071	13
83.086	15
85.103	8
95.082	20
97.101	9
99.116	7
109.101	17
111.123	12
121.103	9
123.112	17
135.118	8
165.159	10
186.993	17
225.223	8
239.235	27
247.243	13
253.248	23
265.245	17
265.257	23
267.272	8
268.995	13
271.268	2
279.267	8
286.991	6
313.277	13
314.262	3
327.295	6
339.297	5
341.313	2
348.979	4
372.973	2
433.001	3
451.001	5
537.467	13
537.496	13
549.477	35
549.508	22
551.497	71
551.509	24
551.521	52
563.485	37
563.502	130
563.528	39
563.761	10
565.517	723
565.536	147
577.464	9
577.5	137
577.52	773
579.498	9
579.537	33
579.555	11
591.531	999
592.545	20
593.527	9
593.551	26
605.519	9
605.528	20
605.553	78
605.586	13
619.571	16
718.82	2
787.599	2
847.771	5
864.725	30
864.743	23
864.751	24
864.766	28
864.776	24
864.793	48
864.819	46
864.843	15
