Mass spectrum: TG 60:11; LC-ESI-QTOF; MS2
Name: TG 60:11
Class:  TAG
Formula: C63H100O6
Exact mass: 953.487
SMILES: CCCCCC\C=C/CCCCCCCCCC(=O)OCC(COC(=O)CC\C=C/C\C=C/C\C=C/C\C=C/C\C=C/C\C=C/CC)OC(=O)CCC\C=C/C\C=C/C\C=C/C\C=C/CCCCC
InChI: InChI=1S/C63H100O6/c1-4-7-10-13-16-19-22-25-28-30-31-33-35-38-41-44-47-50-53-56-62(65)68-59-60(58-67-61(64)55-52-49-46-43-40-37-34-27-24-21-18-15-12-9-6-3)69-63(66)57-54-51-48-45-42-39-36-32-29-26-23-20-17-14-11-8-5-2/h7,10,16-17,19-21,24-26,28-29,31,33,36,38-39,41,45,47-48,50,60H,4-6,8-9,11-15,18,22-23,27,30,32,34-35,37,40,42-44,46,49,51-59H2,1-3H3/b10-7-,19-16-,20-17-,24-21-,28-25-,29-26-,33-31-,39-36-,41-38-,48-45-,50-47-
Instrument: AB Sciex TripleTOF 5600+ system (Q-TOF) equipped with a DuoSpray ion source
Instrument type: LC-ESI-QTOF
Ms type: MS2
Ion mode: POSITIVE
Collision energy: 45V
Column name: Acquity UPLC Peptide BEH C18 column (50*2.1 mm; 1.7 um; 130A)(Waters Co.,Milford, MA, USA)
Retention time: 14.12098
Precursor type: [M+NH4]+
Precursor m/z: 970.7845
Intensity: 2163
m/z	relative intensity
81.071	33
91.054	34
93.067	20
95.08	16
109.099	16
117.069	17
119.087	19
121.098	16
131.082	21
133.098	21
135.114	15
143.084	16
157.101	17
159.116	33
169.101	17
171.116	24
173.134	33
175.149	34
183.112	20
185.131	39
187.148	25
195.115	13
197.13	15
199.148	30
201.164	52
211.143	26
213.164	31
215.179	19
223.147	21
225.162	14
227.179	36
237.161	21
239.237	21
269.226	18
283.202	7
283.244	8
293.224	45
293.242	8
295.237	25
295.252	8
309.221	14
311.236	58
311.262	12
313.241	18
313.252	39
313.276	70
327.228	5
339.291	11
367.262	12
369.272	12
369.289	6
385.267	13
387.282	14
387.304	12
549.454	5
621.484	4
623.497	322
623.522	66
624.504	11
625.521	999
626.489	7
626.539	16
627.521	17
641.497	5
647.502	4
649.513	23
649.542	5
651.534	19
671.488	7
671.523	7
695.588	3
697.516	283
697.55	52
698.522	10
713.526	7
715.556	2
763.564	2
773.562	2
810.88	2
817.62	5
826.653	2
829.627	3
843.619	2
879.707	7
879.749	18
888.686	10
935.747	12
941.685	17
941.734	7
953.725	26
953.775	59
953.819	6
970.691	21
970.753	158
970.788	317
970.82	110
970.843	30
971.763	13
971.8	19
