Mass spectrum: TG 56:5; LC-ESI-QTOF; MS2
Name: TG 56:5
Class:  TAG
Formula: C59H104O6
Exact mass: 909.475
SMILES: CCCCCCCC\C=C/C\C=C/C\C=C/CCCC(=O)OCC(COC(=O)CCCCCCCCC\C=C/CCCCCC)OC(=O)CCCCCCCCC\C=C/CCCCCC
InChI: InChI=1S/C59H104O6/c1-4-7-10-13-16-19-22-25-28-29-32-34-37-40-43-46-49-52-58(61)64-55-56(65-59(62)53-50-47-44-41-38-35-31-27-24-21-18-15-12-9-6-3)54-63-57(60)51-48-45-42-39-36-33-30-26-23-20-17-14-11-8-5-2/h20-21,23-25,28,32,34,40,43,56H,4-19,22,26-27,29-31,33,35-39,41-42,44-55H2,1-3H3/b23-20-,24-21-,28-25-,34-32-,43-40-
Instrument: AB Sciex TripleTOF 5600+ system (Q-TOF) equipped with a DuoSpray ion source
Instrument type: LC-ESI-QTOF
Ms type: MS2
Ion mode: POSITIVE
Collision energy: 45V
Column name: Acquity UPLC Peptide BEH C18 column (50*2.1 mm; 1.7 um; 130A)(Waters Co.,Milford, MA, USA)
Retention time: 14.63159
Precursor type: [M+NH4]+
Precursor m/z: 926.8149
Intensity: 78004
m/z	relative intensity
71.05	0
71.085	1
77.037	1
79.054	8
81.07	31
83.051	0
83.085	13
85.065	1
85.101	1
91.054	5
93.069	11
95.085	33
97.063	1
97.101	11
99.08	2
105.07	3
107.086	10
109.101	21
111.08	2
111.117	6
113.096	2
117.07	0
119.086	5
121.102	19
123.116	15
125.099	1
125.131	1
127.114	1
131.085	2
133.1	7
135.117	15
137.093	0
137.132	9
139.105	0
139.113	1
141.128	1
145.103	2
147.116	6
149.131	11
151.114	0
151.148	6
153.128	3
159.118	3
161.133	10
163.148	14
165.164	5
167.142	2
169.16	1
171.117	1
173.131	4
175.148	13
177.127	0
177.163	9
179.143	1
179.177	2
179.187	1
181.161	1
185.134	1
187.148	3
189.163	6
191.18	4
193.159	1
193.194	1
199.144	1
201.162	3
203.181	3
205.196	3
207.177	2
207.21	0
211.146	0
213.163	0
215.181	1
217.195	1
219.209	1
221.191	0
223.17	0
225.165	0
233.227	1
235.17	0
243.21	5
245.189	0
245.226	21
247.242	6
249.185	1
249.256	0
261.223	20
261.258	1
263.237	66
265.253	26
269.225	0
271.241	7
273.219	0
273.257	2
275.239	1
275.272	6
275.289	0
277.215	0
279.232	0
283.239	0
285.219	0
286.225	0
287.235	1
289.252	21
291.27	7
293.285	30
299.239	0
301.245	0
301.26	0
303.267	0
305.247	0
310.315	0
311.243	0
313.266	0
314.267	0
315.26	0
317.234	1
317.25	4
317.29	0
319.261	16
321.277	1
327.266	1
331.257	0
335.243	0
335.259	2
335.276	0
337.274	31
339.29	26
340.292	1
341.309	1
342.306	1
345.276	10
345.319	0
347.29	2
347.306	0
349.31	2
359.294	0
359.332	0
361.271	1
363.288	2
365.31	5
367.321	27
373.346	0
387.358	0
393.297	0
401.358	0
403.354	0
405.299	0
429.397	0
443.387	0
445.404	0
455.391	0
477.388	0
487.375	0
487.409	0
489.386	1
501.386	0
503.398	0
507.456	1
515.404	0
519.428	0
525.466	9
527.477	0
529.427	0
531.445	0
537.497	0
543.436	0
543.473	5
545.494	0
551.486	0
553.483	3
553.502	3
553.526	1
555.503	2
555.523	2
571.465	0
571.484	1
571.513	2
573.494	1
573.516	1
573.538	0
575.5	3
577.513	3
578.491	0
579.53	1
580.533	2
581.479	0
581.515	1
585.496	0
587.513	1
591.514	0
597.485	1
597.507	0
597.612	1
597.636	1
599.393	0
599.5	795
600.474	1
600.508	9
601.518	192
602.516	2
602.537	1
603.533	183
604.521	1
604.545	1
605.535	1
605.562	1
606.552	6
607.547	5
607.573	3
613.504	0
615.486	1
615.504	0
615.529	1
617.486	0
617.511	1
617.528	2
617.556	1
624.498	1
625.515	15
625.568	0
626.518	1
627.531	517
628.527	3
628.551	2
629.423	1
629.547	999
630.52	17
630.548	77
630.57	56
630.593	9
631.563	90
641.549	0
643.515	1
643.551	0
643.57	1
645.531	0
645.554	1
647.565	1
652.517	0
653.546	7
655.556	3
655.593	1
657.582	1
671.534	0
671.586	0
673.534	0
681.559	0
683.614	0
685.543	0
685.612	0
687.534	0
687.561	0
687.591	0
697.615	0
699.564	0
701.571	0
711.613	0
713.557	0
713.626	0
715.558	0
715.608	0
725.634	0
727.562	0
727.596	0
729.595	0
739.662	0
741.599	0
743.62	0
755.621	0
757.651	0
767.672	0
769.619	0
769.661	0
771.641	0
783.626	0
783.666	0
783.713	0
785.651	0
793.695	0
797.636	0
797.671	1
797.7	1
807.72	0
811.659	0
811.685	1
811.719	0
811.753	0
825.667	0
825.699	1
825.749	0
839.695	0
839.734	0
844.732	0
868.745	0
873.767	0
891.72	1
891.776	29
892.794	0
906.922	0
906.975	0
909.788	189
909.869	0
910.763	1
910.793	1
910.816	1
917.695	0
917.735	1
917.759	0
917.777	1
917.806	0
923.901	0
923.939	0
926.814	168
927.747	0
927.79	2
927.821	4
927.862	0
