Mass spectrum: ChE 17:1; LC-ESI-QTOF; MS2
Name: ChE 17:1
Class:  CE
Formula: C44H76O2
Exact mass: 637.0899999999999
SMILES: CCCCCCC\C=C/CCCCCCCC(=O)O[C@H]1CC[C@]2(C)[C@H]3CC[C@]4(C)[C@H](CC[C@H]4[C@@H]3CC=C2C1)[C@H](C)CCCC(C)C
InChI: InChI=1S/C44H76O2/c1-7-8-9-10-11-12-13-14-15-16-17-18-19-20-24-42(45)46-37-29-31-43(5)36(33-37)25-26-38-40-28-27-39(35(4)23-21-22-34(2)3)44(40,6)32-30-41(38)43/h13-14,25,34-35,37-41H,7-12,15-24,26-33H2,1-6H3/b14-13-/t35-,37+,38+,39-,40+,41+,43+,44-/m1/s1
Instrument: AB Sciex TripleTOF 5600+ system (Q-TOF) equipped with a DuoSpray ion source
Instrument type: LC-ESI-QTOF
Ms type: MS2
Ion mode: POSITIVE
Collision energy: 45V
Column name: Acquity UPLC Peptide BEH C18 column (50*2.1 mm; 1.7 um; 130A)(Waters Co.,Milford, MA, USA)
Retention time: 14.66006
Precursor type: [M+NH4]+
Precursor m/z: 654.6181
Intensity: 1034
m/z	relative intensity
109.103	53
123.113	53
135.121	44
147.116	90
161.133	107
175.147	90
187.003	53
189.164	53
203.18	90
205.194	45
215.177	71
219.208	44
229.197	45
233.226	71
243.212	53
259.244	71
268.996	47
273.257	53
287.277	53
292.961	17
293.964	17
369.349	999
369.387	44
369.984	17
383.351	62
383.379	82
408.958	26
654.467	17
