Mass spectrum: TG 52:7; LC-ESI-QTOF; MS2
Name: TG 52:7
Class:  TAG
Formula: C55H92O6
Exact mass: 849.3349999999999
SMILES: CCCCCCCCCCCCCC(=O)OCC(COC(=O)CC\C=C/C\C=C/C\C=C/C\C=C/C\C=C/C\C=C/CC)OC(=O)CCCCC\C=C/CCCCCCCC
InChI: InChI=1S/C55H92O6/c1-4-7-10-13-16-19-22-24-25-26-27-28-29-31-33-36-39-42-45-48-54(57)60-51-52(50-59-53(56)47-44-41-38-35-32-21-18-15-12-9-6-3)61-55(58)49-46-43-40-37-34-30-23-20-17-14-11-8-5-2/h7,10,16,19,24-25,27-28,30-31,33-34,39,42,52H,4-6,8-9,11-15,17-18,20-23,26,29,32,35-38,40-41,43-51H2,1-3H3/b10-7-,19-16-,25-24-,28-27-,33-31-,34-30-,42-39-
Instrument: AB Sciex TripleTOF 5600+ system (Q-TOF) equipped with a DuoSpray ion source
Instrument type: LC-ESI-QTOF
Ms type: MS2
Ion mode: POSITIVE
Collision energy: 45V
Column name: Acquity UPLC Peptide BEH C18 column (50*2.1 mm; 1.7 um; 130A)(Waters Co.,Milford, MA, USA)
Retention time: 13.79841
Precursor type: [M+NH4]+
Precursor m/z: 866.7186
Intensity: 6911
m/z	relative intensity
71.086	8
79.053	7
81.068	17
83.086	11
85.102	7
91.054	10
93.071	6
95.084	22
97.099	9
105.068	4
107.087	4
109.1	17
111.118	6
117.071	6
119.084	8
121.099	11
123.115	7
131.085	12
133.102	8
135.115	10
137.13	5
143.089	4
145.102	5
149.132	4
157.1	6
159.119	10
161.132	9
163.149	6
169.1	11
171.116	14
173.131	13
175.146	7
181.101	6
183.116	9
185.132	9
187.149	6
197.133	7
199.148	10
201.163	19
203.181	5
209.132	7
211.147	12
211.204	23
213.164	10
215.179	7
219.208	7
223.147	8
225.161	8
227.178	17
237.163	6
237.218	18
239.23	6
241.155	5
251.184	5
265.248	4
267.209	4
269.231	8
283.2	2
283.227	9
283.244	7
285.242	23
291.204	2
291.229	1
292.969	2
293.211	8
293.223	34
293.235	17
309.222	5
311.234	68
311.249	18
311.262	8
313.265	8
313.281	3
337.272	2
339.25	4
339.292	3
367.259	5
367.274	1
383.262	4
385.272	2
467.377	1
519.44	1
519.83	5
521.456	999
522.46	6
547.458	11
547.488	3
549.499	2
551.5	6
567.412	3
567.422	5
567.444	15
567.47	3
569.441	4
575.506	3
593.455	58
593.491	4
593.522	4
595.459	77
595.478	75
597.49	1
601.511	4
621.435	4
621.486	158
623.494	70
623.536	3
649.511	14
649.538	10
725.571	1
771.638	10
771.67	4
784.649	2
788.587	2
798.656	2
806.599	4
831.68	6
849.643	3
849.677	25
849.711	15
850.695	1
866.707	87
866.74	54
866.778	5
867.712	3
