Mass spectrum: DG 30:2; LC-ESI-QTOF; MS2
Name: DG 30:2
Class:  DAG
Formula: C33H60O5
Exact mass: 536.838
SMILES: CCCCCCCCCCCC(=O)OCC(CO)OC(=O)CCCCCCC\C=C/C\C=C/CCCCC
InChI: InChI=1S/C33H60O5/c1-3-5-7-9-11-13-14-15-16-17-18-20-22-24-26-28-33(36)38-31(29-34)30-37-32(35)27-25-23-21-19-12-10-8-6-4-2/h11,13,15-16,31,34H,3-10,12,14,17-30H2,1-2H3/b13-11-,16-15-
Instrument: AB Sciex TripleTOF 5600+ system (Q-TOF) equipped with a DuoSpray ion source
Instrument type: LC-ESI-QTOF
Ms type: MS2
Ion mode: POSITIVE
Collision energy: 45V
Column name: Acquity UPLC Peptide BEH C18 column (50*2.1 mm; 1.7 um; 130A)(Waters Co.,Milford, MA, USA)
Retention time: 9.122559
Precursor type: [M+NH4]+
Precursor m/z: 554.4816
Intensity: 490
m/z	relative intensity
257.142	240
257.224	301
257.254	999
337.192	397
337.341	975
519.323	277
519.492	277
519.529	361
