Mass spectrum: TG 48:3; LC-ESI-QTOF; MS2
Name: TG 48:3
Class:  TAG
Formula: C51H92O6
Exact mass: 801.2909999999999
SMILES: CCCCCCCCCCCCCC(=O)OCC(COC(=O)CCCCCCCC\C=C/C=C\CCCCC)OC(=O)CCCCC\C=C/CCCCCCCC
InChI: InChI=1S/C51H92O6/c1-4-7-10-13-16-19-22-24-25-27-29-32-35-38-41-44-50(53)56-47-48(46-55-49(52)43-40-37-34-31-28-21-18-15-12-9-6-3)57-51(54)45-42-39-36-33-30-26-23-20-17-14-11-8-5-2/h16,19,22,24,26,30,48H,4-15,17-18,20-21,23,25,27-29,31-47H2,1-3H3/b19-16-,24-22-,30-26-
Instrument: AB Sciex TripleTOF 5600+ system (Q-TOF) equipped with a DuoSpray ion source
Instrument type: LC-ESI-QTOF
Ms type: MS2
Ion mode: POSITIVE
Collision energy: 45V
Column name: Acquity UPLC Peptide BEH C18 column (50*2.1 mm; 1.7 um; 130A)(Waters Co.,Milford, MA, USA)
Retention time: 13.9196
Precursor type: [M+NH4]+
Precursor m/z: 818.7203
Intensity: 67823
m/z	relative intensity
71.085	3
79.055	6
81.07	25
83.085	10
85.101	4
91.054	2
93.069	8
95.085	26
97.101	11
99.08	1
105.071	1
107.086	6
109.1	17
111.081	2
111.117	6
119.086	2
121.101	17
123.117	10
125.093	1
125.13	1
133.103	3
135.116	17
137.131	8
149.131	7
151.147	2
153.128	2
161.13	2
163.147	5
167.141	1
175.148	3
177.162	3
183.176	6
189.165	2
191.176	1
193.199	1
209.19	4
211.205	14
219.212	18
237.221	49
239.239	1
245.216	2
245.228	7
247.24	3
257.22	1
263.236	24
265.253	8
279.237	0
283.224	1
283.238	0
285.241	7
293.242	1
295.26	0
311.259	20
313.257	0
313.286	1
319.265	3
319.28	1
321.286	0
335.259	0
337.272	5
339.29	4
339.306	0
365.274	0
447.417	0
473.435	1
491.395	1
491.415	2
493.423	1
499.44	0
499.466	0
517.809	1
519.441	180
519.824	2
521.456	330
523.479	1
527.482	0
545.45	29
545.476	8
545.727	1
545.765	1
545.79	2
547.471	999
548.449	1
548.488	1
549.487	2
573.486	281
574.478	0
575.501	112
576.478	0
577.518	2
601.492	12
601.519	101
603.531	2
603.554	1
629.55	1
689.597	0
703.613	0
717.593	0
781.2	0
783.676	2
783.71	2
801.623	0
801.673	6
801.7	13
816.155	0
818.586	0
818.719	47
818.856	0
