Mass spectrum: TG 53:3; LC-ESI-QTOF; MS2
Name: TG 53:3
Class:  TAG
Formula: C56H102O6
Exact mass: 871.426
SMILES: CCCCCCCCCCCCCCCC(=O)OCC(COC(=O)CCCCCCC\C=C/CCCCCCCCC)OC(=O)CCCCCCCC\C=C/C=C\CCCCC
InChI: InChI=1S/C56H102O6/c1-4-7-10-13-16-19-22-25-27-29-31-34-37-40-43-46-49-55(58)61-52-53(51-60-54(57)48-45-42-39-36-33-30-24-21-18-15-12-9-6-3)62-56(59)50-47-44-41-38-35-32-28-26-23-20-17-14-11-8-5-2/h17,20,23,26-27,29,53H,4-16,18-19,21-22,24-25,28,30-52H2,1-3H3/b20-17-,26-23-,29-27-
Instrument: AB Sciex TripleTOF 5600+ system (Q-TOF) equipped with a DuoSpray ion source
Instrument type: LC-ESI-QTOF
Ms type: MS2
Ion mode: POSITIVE
Collision energy: 45V
Column name: Acquity UPLC Peptide BEH C18 column (50*2.1 mm; 1.7 um; 130A)(Waters Co.,Milford, MA, USA)
Retention time: 14.67168
Precursor type: [M+NH4]+
Precursor m/z: 888.7987
Intensity: 3296
m/z	relative intensity
81.07	14
83.086	9
95.085	29
97.099	16
109.101	19
121.099	16
123.116	11
149.135	11
239.238	8
245.229	8
247.244	15
251.239	11
253.255	8
263.24	27
265.249	30
265.262	19
268.997	11
279.263	6
287.239	6
313.263	4
319.263	11
325.27	7
327.293	11
337.272	4
339.285	12
339.3	9
348.984	4
561.469	13
561.502	30
563.49	22
563.515	16
565.532	12
566.523	17
567.532	17
573.487	20
575.49	50
575.51	97
575.534	29
577.519	16
585.486	20
587.489	22
587.521	17
589.518	999
590.508	14
591.51	110
591.535	548
592.537	14
597.492	16
601.515	554
602.515	19
603.498	23
603.514	84
603.534	291
604.543	11
611.487	17
611.515	24
615.526	81
615.545	66
617.535	39
617.573	14
629.553	21
789.585	3
853.781	11
865.035	3
866.318	3
867.721	287
867.751	464
868.367	3
868.712	11
868.745	17
868.773	10
871.752	27
871.791	19
871.829	4
872.742	3
879.679	4
888.701	9
888.726	34
888.773	88
888.799	63
888.82	46
888.849	21
889.797	9
893.723	3
