Mass spectrum: TG 48:5; LC-ESI-QTOF; MS2
Name: TG 48:5
Class:  TAG
Formula: C51H88O6
Exact mass: 797.2589999999999
SMILES: CCCCCCCCCCCCCC(=O)OCC(COC(=O)CCC\C=C/C\C=C/C\C=C/C\C=C/C\C=C/CC)OC(=O)CCCCCCCCCCCCC
InChI: InChI=1S/C51H88O6/c1-4-7-10-13-16-19-22-23-24-25-26-27-30-32-35-38-41-44-50(53)56-47-48(57-51(54)45-42-39-36-33-29-21-18-15-12-9-6-3)46-55-49(52)43-40-37-34-31-28-20-17-14-11-8-5-2/h7,10,16,19,23-24,26-27,32,35,48H,4-6,8-9,11-15,17-18,20-22,25,28-31,33-34,36-47H2,1-3H3/b10-7-,19-16-,24-23-,27-26-,35-32-
Instrument: AB Sciex TripleTOF 5600+ system (Q-TOF) equipped with a DuoSpray ion source
Instrument type: LC-ESI-QTOF
Ms type: MS2
Ion mode: POSITIVE
Collision energy: 45V
Column name: Acquity UPLC Peptide BEH C18 column (50*2.1 mm; 1.7 um; 130A)(Waters Co.,Milford, MA, USA)
Retention time: 13.66083
Precursor type: [M+NH4]+
Precursor m/z: 814.684
Intensity: 199
m/z	relative intensity
189.166	98
201.165	127
226.983	83
231.181	83
257.208	83
263.238	83
267.218	112
285.235	230
292.959	41
311.248	48
313.28	104
337.281	125
339.275	131
342.972	62
344.991	62
424.974	62
426.934	48
491.404	315
493.42	424
493.444	297
495.44	999
515.413	89
517.428	209
519.424	125
519.458	190
541.416	278
543.437	131
545.451	274
545.484	125
547.466	209
549.484	554
549.509	190
569.459	315
573.495	274
575.504	297
597.481	125
601.526	230
732.606	62
773.69	41
790.69	125
797.669	115
814.502	62
814.584	83
814.71	125
