Mass spectrum: TG 53:1; LC-ESI-QTOF; MS2
Name: TG 53:1
Class:  TAG
Formula: C56H106O6
Exact mass: 875.458
SMILES: CCCCCCCCCCCCCCCCCC(=O)OC(COC(=O)CCCCCCCCCCCCCCC)COC(=O)CCCCCCC\C=C/CCCCCCCCC
InChI: InChI=1S/C56H106O6/c1-4-7-10-13-16-19-22-25-27-29-31-34-37-40-43-46-49-55(58)61-52-53(51-60-54(57)48-45-42-39-36-33-30-24-21-18-15-12-9-6-3)62-56(59)50-47-44-41-38-35-32-28-26-23-20-17-14-11-8-5-2/h27,29,53H,4-26,28,30-52H2,1-3H3/b29-27-
Instrument: AB Sciex TripleTOF 5600+ system (Q-TOF) equipped with a DuoSpray ion source
Instrument type: LC-ESI-QTOF
Ms type: MS2
Ion mode: POSITIVE
Collision energy: 45V
Column name: Acquity UPLC Peptide BEH C18 column (50*2.1 mm; 1.7 um; 130A)(Waters Co.,Milford, MA, USA)
Retention time: 15.35694
Precursor type: [M+NH4]+
Precursor m/z: 892.8337
Intensity: 1178
m/z	relative intensity
81.069	27
85.103	27
95.088	41
121.104	18
186.994	41
239.246	22
247.253	18
265.258	48
268.993	32
269.013	36
281.292	22
313.283	32
316.923	9
339.112	9
339.299	9
340.29	9
348.995	13
435.044	9
549.5	32
551.511	36
563.532	22
565.514	24
565.55	24
577.502	102
577.528	528
577.549	298
579.54	75
579.56	65
591.552	453
593.535	245
593.572	999
594.58	24
605.546	112
605.574	275
607.59	50
619.557	108
619.577	421
619.602	322
621.597	50
633.605	22
647.624	27
686.965	9
746.947	9
845.684	9
857.817	9
875.828	13
892.779	51
892.803	62
892.831	120
892.858	121
892.922	33
