Mass spectrum: TG 47:2; LC-ESI-QTOF; MS2
Name: TG 47:2
Class:  TAG
Formula: C50H92O6
Exact mass: 789.28
SMILES: CCCCCCCCCCCCCCCC(=O)OC(COC(=O)CCCCCCCCCCCC)COC(=O)CCCCCCCC\C=C/C=C\CCCCC
InChI: InChI=1S/C50H92O6/c1-4-7-10-13-16-19-22-24-25-27-28-31-34-37-40-43-49(52)55-46-47(45-54-48(51)42-39-36-33-30-21-18-15-12-9-6-3)56-50(53)44-41-38-35-32-29-26-23-20-17-14-11-8-5-2/h16,19,22,24,47H,4-15,17-18,20-21,23,25-46H2,1-3H3/b19-16-,24-22-
Instrument: AB Sciex TripleTOF 5600+ system (Q-TOF) equipped with a DuoSpray ion source
Instrument type: LC-ESI-QTOF
Ms type: MS2
Ion mode: POSITIVE
Collision energy: 45V
Column name: Acquity UPLC Peptide BEH C18 column (50*2.1 mm; 1.7 um; 130A)(Waters Co.,Milford, MA, USA)
Retention time: 13.97952
Precursor type: [M+NH4]+
Precursor m/z: 806.7202
Intensity: 2410
m/z	relative intensity
81.071	54
83.084	19
85.102	22
95.083	35
97.104	34
109.097	31
109.107	31
121.102	35
123.118	41
135.11	22
137.135	31
149.131	22
163.147	18
197.192	18
203.177	31
211.196	22
211.213	28
221.187	41
225.222	28
237.221	67
239.234	38
245.228	28
263.235	47
285.229	12
285.253	18
297.252	6
299.248	9
299.264	22
311.259	19
313.27	93
313.286	28
319.264	15
337.277	16
339.291	7
459.411	6
465.393	12
477.38	6
507.442	209
509.437	182
509.456	325
509.472	127
519.452	44
521.444	206
521.466	164
523.476	31
533.453	534
533.487	58
535.45	186
535.472	999
547.445	170
547.468	590
547.487	257
549.475	83
549.498	151
551.499	219
551.528	80
561.487	725
563.491	28
563.516	103
575.496	119
575.514	125
577.526	39
589.512	61
589.53	38
603.535	28
771.677	22
788.776	6
789.693	18
806.682	40
806.728	128
806.78	15
