Mass spectrum: TG 50:4; LC-ESI-QTOF; MS2
Name: TG 50:4
Class:  TAG
Formula: C53H94O6
Exact mass: 827.329
SMILES: CCCCCCCCCCCCCC(=O)OCC(COC(=O)CCCCCCCC\C=C/C=C\CCCCC)OC(=O)CCCCCCCC\C=C/C=C\CCCCC
InChI: InChI=1S/C53H94O6/c1-4-7-10-13-16-19-22-24-26-28-31-34-37-40-43-46-52(55)58-49-50(48-57-51(54)45-42-39-36-33-30-21-18-15-12-9-6-3)59-53(56)47-44-41-38-35-32-29-27-25-23-20-17-14-11-8-5-2/h16-17,19-20,22-25,50H,4-15,18,21,26-49H2,1-3H3/b19-16-,20-17-,24-22-,25-23-
Instrument: AB Sciex TripleTOF 5600+ system (Q-TOF) equipped with a DuoSpray ion source
Instrument type: LC-ESI-QTOF
Ms type: MS2
Ion mode: POSITIVE
Collision energy: 45V
Column name: Acquity UPLC Peptide BEH C18 column (50*2.1 mm; 1.7 um; 130A)(Waters Co.,Milford, MA, USA)
Retention time: 13.98885
Precursor type: [M+NH4]+
Precursor m/z: 844.7375
Intensity: 3825
m/z	relative intensity
79.054	3
81.069	17
83.084	7
91.052	1
93.069	4
95.085	19
97.1	5
99.081	1
105.071	1
107.085	4
109.1	8
111.077	1
111.114	2
113.093	1
119.085	1
121.101	11
123.118	7
133.102	2
135.116	8
137.133	4
147.115	3
149.131	5
151.147	1
153.127	1
161.133	3
163.145	6
165.16	1
167.142	1
175.147	4
177.162	2
189.162	1
193.158	1
203.176	2
211.208	2
219.209	12
235.203	1
237.22	39
245.223	10
261.225	2
263.236	33
265.25	2
269.0	1
283.241	0
285.243	3
292.959	1
293.253	1
301.255	0
301.285	0
309.248	1
311.258	23
312.258	0
313.278	1
316.92	0
317.247	1
319.262	7
321.278	0
335.247	0
337.263	2
337.276	7
339.284	1
339.308	0
352.976	0
434.984	0
449.355	0
463.366	0
489.404	1
499.43	0
499.455	2
517.465	3
536.952	0
545.428	3
545.46	32
545.505	1
546.475	0
547.471	521
548.452	2
548.474	13
549.503	2
559.482	1
561.499	1
571.479	5
571.673	1
571.697	1
571.711	2
573.418	0
573.487	999
574.492	36
577.502	2
587.492	0
591.493	1
599.502	66
600.497	1
601.518	22
601.554	3
602.53	1
681.017	0
701.579	1
729.622	1
809.687	4
809.712	3
827.66	1
827.711	48
828.7	0
844.565	1
844.719	60
844.75	39
844.774	14
845.707	1
845.752	2
