Mass spectrum: TG 53:2; LC-ESI-QTOF; MS2
Name: TG 53:2
Class:  TAG
Formula: C56H104O6
Exact mass: 873.442
SMILES: CCCCCCCCCCCCCCCC(=O)OCC(COC(=O)CCCCCCC\C=C/CCCCCCCCC)OC(=O)CCCCCCCCC\C=C/CCCCCC
InChI: InChI=1S/C56H104O6/c1-4-7-10-13-16-19-22-25-27-29-31-34-37-40-43-46-49-55(58)61-52-53(51-60-54(57)48-45-42-39-36-33-30-24-21-18-15-12-9-6-3)62-56(59)50-47-44-41-38-35-32-28-26-23-20-17-14-11-8-5-2/h20,23,27,29,53H,4-19,21-22,24-26,28,30-52H2,1-3H3/b23-20-,29-27-
Instrument: AB Sciex TripleTOF 5600+ system (Q-TOF) equipped with a DuoSpray ion source
Instrument type: LC-ESI-QTOF
Ms type: MS2
Ion mode: POSITIVE
Collision energy: 45V
Column name: Acquity UPLC Peptide BEH C18 column (50*2.1 mm; 1.7 um; 130A)(Waters Co.,Milford, MA, USA)
Retention time: 14.98543
Precursor type: [M+NH4]+
Precursor m/z: 890.8159
Intensity: 7307
m/z	relative intensity
71.088	4
81.069	12
83.084	16
85.099	4
93.069	5
95.084	21
97.1	12
109.101	11
111.119	6
121.102	7
123.116	6
135.117	11
137.133	4
163.15	4
165.163	5
226.98	4
226.99	6
239.233	15
245.23	5
247.235	10
247.255	5
251.235	5
253.253	4
261.258	6
263.233	4
263.245	5
265.251	46
279.264	9
279.275	6
281.283	1
282.28	1
313.274	5
321.277	4
325.273	1
327.288	5
339.29	13
341.3	3
353.297	3
353.313	4
355.315	5
390.995	4
432.989	1
472.998	2
547.474	3
549.483	4
561.499	4
563.465	2
563.489	12
563.51	22
575.499	143
575.725	3
577.518	379
579.54	2
589.515	186
589.56	4
589.688	3
591.532	999
591.606	2
592.551	3
593.545	161
603.535	391
605.502	3
605.546	125
615.639	3
617.551	511
618.562	2
619.549	22
619.574	26
631.54	2
631.572	10
631.597	4
645.584	3
855.77	4
855.799	2
873.741	2
873.799	11
873.85	0
888.037	1
890.615	1
890.751	7
890.804	139
890.841	60
891.012	1
