Mass spectrum: ChE 16:1; LC-ESI-QTOF; MS2
Name: ChE 16:1
Class:  CE
Formula: C43H74O2
Exact mass: 623.063
SMILES: CCCCCC\C=C/CCCCCCCC(=O)O[C@H]1CC[C@]2(C)[C@H]3CC[C@]4(C)[C@H](CC[C@H]4[C@@H]3CC=C2C1)[C@H](C)CCCC(C)C
InChI: InChI=1S/C43H74O2/c1-7-8-9-10-11-12-13-14-15-16-17-18-19-23-41(44)45-36-28-30-42(5)35(32-36)24-25-37-39-27-26-38(34(4)22-20-21-33(2)3)43(39,6)31-29-40(37)42/h12-13,24,33-34,36-40H,7-11,14-23,25-32H2,1-6H3/b13-12-/t34-,36+,37+,38-,39+,40+,42+,43-/m1/s1
Instrument: AB Sciex TripleTOF 5600+ system (Q-TOF) equipped with a DuoSpray ion source
Instrument type: LC-ESI-QTOF
Ms type: MS2
Ion mode: POSITIVE
Collision energy: 45V
Column name: Acquity UPLC Peptide BEH C18 column (50*2.1 mm; 1.7 um; 130A)(Waters Co.,Milford, MA, USA)
Retention time: 14.44934
Precursor type: [M+NH4]+
Precursor m/z: 640.6027
Intensity: 12890
m/z	relative intensity
71.085	9
81.069	26
83.085	14
85.099	7
93.067	6
95.085	37
97.098	10
105.068	7
107.083	12
109.1	36
111.115	11
119.085	9
121.099	16
123.114	15
125.131	6
133.099	11
135.115	59
137.132	10
145.097	4
147.115	65
149.132	28
151.149	6
159.115	8
161.132	104
163.146	13
165.162	11
173.127	8
175.147	72
177.164	11
179.179	13
186.993	11
187.149	11
189.162	39
191.177	8
193.195	19
201.161	25
203.177	43
205.193	20
207.213	6
215.177	61
217.194	31
219.209	23
221.222	4
226.987	16
229.193	37
231.209	7
233.223	37
243.208	57
245.223	10
247.238	28
247.257	4
257.228	29
259.241	46
261.255	15
271.239	4
271.251	2
273.255	27
275.272	2
285.253	6
287.26	8
287.277	31
299.271	9
301.292	2
313.289	9
327.297	2
351.041	1
368.202	3
369.352	999
370.417	1
390.998	4
640.387	2
