Mass spectrum: TG 56:4; LC-ESI-QTOF; MS2
Name: TG 56:4
Class:  TAG
Formula: C59H106O6
Exact mass: 911.491
SMILES: CCCCCCCCCCCCCCCCCC(=O)OCC(COC(=O)CCCCCCCCC\C=C/C\C=C/CCCCC)OC(=O)CCCCCCCC\C=C/C=C\CCCCC
InChI: InChI=1S/C59H106O6/c1-4-7-10-13-16-19-22-25-28-29-32-34-37-40-43-46-49-52-58(61)64-55-56(65-59(62)53-50-47-44-41-38-35-31-27-24-21-18-15-12-9-6-3)54-63-57(60)51-48-45-42-39-36-33-30-26-23-20-17-14-11-8-5-2/h16,18-19,21,24-25,27-28,56H,4-15,17,20,22-23,26,29-55H2,1-3H3/b19-16-,21-18-,27-24-,28-25-
Instrument: AB Sciex TripleTOF 5600+ system (Q-TOF) equipped with a DuoSpray ion source
Instrument type: LC-ESI-QTOF
Ms type: MS2
Ion mode: POSITIVE
Collision energy: 45V
Column name: Acquity UPLC Peptide BEH C18 column (50*2.1 mm; 1.7 um; 130A)(Waters Co.,Milford, MA, USA)
Retention time: 14.8872
Precursor type: [M+NH4]+
Precursor m/z: 928.8315
Intensity: 4779
m/z	relative intensity
79.055	4
81.07	17
83.085	12
93.071	6
95.085	20
97.1	10
107.085	6
109.103	11
111.117	4
113.095	3
121.101	9
123.116	7
125.13	3
135.115	8
149.131	7
161.13	5
163.149	6
175.149	4
177.169	5
189.16	5
245.225	14
247.243	10
263.239	39
265.254	36
273.261	1
275.276	7
287.234	2
287.274	1
291.273	5
293.264	3
293.284	29
301.248	1
319.261	9
319.282	1
321.28	4
321.309	1
335.259	2
337.275	10
339.286	17
339.298	4
341.308	2
347.29	2
349.308	3
367.321	24
456.968	1
545.481	3
555.514	3
557.521	2
573.473	5
573.492	6
573.515	4
575.486	4
575.514	3
587.492	2
599.487	2
599.507	5
599.642	2
601.518	968
602.49	3
602.517	13
602.539	8
603.508	17
603.533	57
603.581	2
604.537	3
605.546	4
606.532	2
606.565	3
607.551	8
607.594	2
626.515	2
627.495	2
627.535	18
627.585	5
629.547	999
630.546	19
630.573	7
631.566	861
632.553	8
632.574	15
632.608	4
645.582	2
647.552	2
655.556	4
655.589	3
657.561	5
657.585	9
673.571	1
683.602	0
685.601	0
702.985	0
745.62	0
773.693	0
781.676	0
785.689	0
799.729	2
813.713	0
837.734	0
846.734	1
855.753	0
893.784	6
893.823	4
907.743	6
907.776	13
907.798	9
911.767	18
911.799	81
911.859	4
912.778	2
912.837	2
923.677	4
923.729	37
923.771	24
923.817	2
928.606	2
928.758	5
928.793	32
928.831	229
928.877	19
929.839	9
929.886	3
