Mass spectrum: TG 48:2; LC-ESI-QTOF; MS2
Name: TG 48:2
Class:  TAG
Formula: C51H94O6
Exact mass: 803.3069999999999
SMILES: CCCCCCCCCCCCCCCC(=O)OC(COC(=O)CCCCCCCCCCCCC)COC(=O)CCCCCCCC\C=C/C=C\CCCCC
InChI: InChI=1S/C51H94O6/c1-4-7-10-13-16-19-22-24-25-27-29-32-35-38-41-44-50(53)56-47-48(46-55-49(52)43-40-37-34-31-28-21-18-15-12-9-6-3)57-51(54)45-42-39-36-33-30-26-23-20-17-14-11-8-5-2/h16,19,22,24,48H,4-15,17-18,20-21,23,25-47H2,1-3H3/b19-16-,24-22-
Instrument: AB Sciex TripleTOF 5600+ system (Q-TOF) equipped with a DuoSpray ion source
Instrument type: LC-ESI-QTOF
Ms type: MS2
Ion mode: POSITIVE
Collision energy: 45V
Column name: Acquity UPLC Peptide BEH C18 column (50*2.1 mm; 1.7 um; 130A)(Waters Co.,Milford, MA, USA)
Retention time: 14.17185
Precursor type: [M+NH4]+
Precursor m/z: 820.7372
Intensity: 16340
m/z	relative intensity
71.085	15
79.055	3
81.07	32
83.085	16
85.1	15
93.069	8
95.085	44
97.101	12
99.115	5
107.085	5
109.1	35
111.115	5
119.085	3
121.099	8
123.117	16
133.099	4
135.115	6
137.131	8
147.116	3
149.13	3
161.131	6
163.152	5
175.149	10
193.195	3
211.205	50
221.227	3
239.235	38
245.224	16
245.241	3
263.237	65
265.252	4
279.235	1
283.24	1
285.245	17
285.26	2
301.252	1
311.257	1
313.273	27
319.265	16
335.26	2
337.267	5
337.285	3
341.307	1
390.99	0
437.372	0
473.443	2
519.436	26
519.457	9
521.447	36
521.466	8
521.474	7
521.834	2
521.851	2
523.472	968
524.463	4
524.487	3
524.505	1
545.762	3
545.79	2
547.472	999
548.451	2
548.474	6
549.464	14
549.491	56
549.529	2
550.499	1
551.488	4
551.505	8
551.537	2
561.489	2
573.711	5
575.503	967
576.496	7
576.527	4
577.519	12
603.527	26
603.553	13
785.686	2
785.718	2
803.705	4
803.747	2
820.736	69
820.767	16
820.87	0
821.705	0
821.776	0
