Mass spectrum: TG 54:1; LC-ESI-QTOF; MS2
Name: TG 54:1
Class:  TAG
Formula: C57H108O6
Exact mass: 889.485
SMILES: CCCCCCCCCCCCCCCC(=O)OCC(COC(=O)CCCCCCCCC\C=C/CCCCCCCCCC)OC(=O)CCCCCCCCCCCCCCC
InChI: InChI=1S/C57H108O6/c1-4-7-10-13-16-19-22-25-26-27-28-29-30-33-35-38-41-44-47-50-56(59)62-53-54(63-57(60)51-48-45-42-39-36-32-24-21-18-15-12-9-6-3)52-61-55(58)49-46-43-40-37-34-31-23-20-17-14-11-8-5-2/h27-28,54H,4-26,29-53H2,1-3H3/b28-27-
Instrument: AB Sciex TripleTOF 5600+ system (Q-TOF) equipped with a DuoSpray ion source
Instrument type: LC-ESI-QTOF
Ms type: MS2
Ion mode: POSITIVE
Collision energy: 45V
Column name: Acquity UPLC Peptide BEH C18 column (50*2.1 mm; 1.7 um; 130A)(Waters Co.,Milford, MA, USA)
Retention time: 15.60344
Precursor type: [M+NH4]+
Precursor m/z: 906.8433
Intensity: 2043
m/z	relative intensity
71.086	7
81.069	9
83.083	8
85.099	3
95.085	14
97.098	5
109.1	6
109.109	2
111.115	4
121.101	2
123.117	5
135.117	7
137.134	3
186.998	2
239.231	8
239.244	4
247.245	3
249.259	2
265.252	28
267.27	23
268.996	5
275.268	2
284.287	1
293.282	7
295.299	2
302.972	2
313.272	3
339.283	3
339.297	2
341.299	6
344.988	1
367.314	1
384.946	1
384.988	2
429.101	1
466.982	1
549.481	3
551.482	6
551.505	17
551.534	3
577.468	2
577.513	92
577.54	13
579.524	111
579.547	73
579.59	3
580.533	2
591.534	2
603.66	5
605.549	999
606.548	16
606.581	5
607.562	470
607.593	57
608.559	6
608.588	6
633.575	149
633.609	26
634.579	6
661.593	3
677.118	0
742.948	0
871.803	1
880.752	3
880.83	3
889.812	3
906.764	3
906.794	10
906.831	63
906.865	61
906.916	2
907.788	1
907.853	3
907.895	2
911.792	2
