Mass spectrum: TG 58:5; LC-ESI-QTOF; MS2
Name: TG 58:5
Class:  TAG
Formula: C61H108O6
Exact mass: 937.529
SMILES: CCCCCCCCCCCCCCCCCC(=O)OCC(COC(=O)CCCCC\C=C/C\C=C/C\C=C/C\C=C/C\C=C/CC)OC(=O)CCCCCCCCCCCCCCCCC
InChI: InChI=1S/C61H108O6/c1-4-7-10-13-16-19-22-25-28-29-30-31-34-36-39-42-45-48-51-54-60(63)66-57-58(67-61(64)55-52-49-46-43-40-37-33-27-24-21-18-15-12-9-6-3)56-65-59(62)53-50-47-44-41-38-35-32-26-23-20-17-14-11-8-5-2/h7,10,16,19,25,28,30-31,36,39,58H,4-6,8-9,11-15,17-18,20-24,26-27,29,32-35,37-38,40-57H2,1-3H3/b10-7-,19-16-,28-25-,31-30-,39-36-
Instrument: AB Sciex TripleTOF 5600+ system (Q-TOF) equipped with a DuoSpray ion source
Instrument type: LC-ESI-QTOF
Ms type: MS2
Ion mode: POSITIVE
Collision energy: 45V
Column name: Acquity UPLC Peptide BEH C18 column (50*2.1 mm; 1.7 um; 130A)(Waters Co.,Milford, MA, USA)
Retention time: 15.11446
Precursor type: [M+NH4]+
Precursor m/z: 954.8445
Intensity: 4783
m/z	relative intensity
71.084	10
79.055	12
81.068	29
83.085	11
91.05	9
93.067	12
95.085	26
97.1	11
105.069	12
107.086	12
109.1	17
119.082	16
121.1	16
123.113	12
133.102	8
135.116	15
151.144	9
159.115	13
161.127	8
163.146	10
171.116	12
173.136	14
175.148	14
177.125	8
177.164	11
185.132	17
187.145	14
189.168	8
191.177	10
199.146	14
201.163	18
203.18	66
213.159	9
215.184	25
217.192	67
229.194	13
231.211	18
239.235	14
243.205	10
247.243	9
265.252	34
267.267	26
271.244	7
285.274	4
287.237	9
287.268	5
287.285	5
289.247	10
293.282	6
295.24	5
297.255	107
299.263	6
311.229	3
313.243	5
313.269	33
315.268	303
323.273	4
325.305	3
331.268	3
339.285	63
341.303	93
343.294	33
353.292	6
367.313	6
367.333	4
371.268	6
371.292	39
387.292	14
389.307	11
399.319	7
517.438	6
529.409	6
543.445	6
551.498	7
561.486	5
575.49	7
577.499	73
577.525	101
579.487	6
579.525	128
579.547	90
579.575	8
580.54	5
581.52	8
599.491	11
601.516	9
603.528	23
603.559	4
605.547	951
606.556	23
607.56	9
609.555	5
625.503	6
625.556	5
627.52	186
627.541	110
628.529	5
629.525	8
629.547	18
629.574	8
631.557	12
631.58	9
633.572	7
653.549	750
654.543	7
654.566	10
655.562	999
656.562	14
657.562	12
657.591	21
659.562	6
659.614	7
669.541	4
671.562	6
673.554	6
681.555	52
681.58	199
681.608	28
682.578	5
683.573	7
683.603	7
825.724	2
893.786	4
911.768	8
911.794	17
911.822	10
911.846	7
919.777	9
919.804	8
919.825	6
919.857	4
928.764	5
928.787	5
928.822	34
928.861	22
937.813	256
937.851	28
937.896	6
938.826	4
954.754	4
954.842	560
955.834	6
955.859	8
955.896	4
