Mass spectrum: TG 56:3; LC-ESI-QTOF; MS2
Name: TG 56:3
Class:  TAG
Formula: C59H108O6
Exact mass: 913.5070000000001
SMILES: CCCCCCCCCCCCCCCCCC(=O)OCC(COC(=O)CCCCCCCCC\C=C/CCCCCCCC)OC(=O)CCCCCCCC\C=C/C=C\CCCCC
InChI: InChI=1S/C59H108O6/c1-4-7-10-13-16-19-22-25-28-29-32-34-37-40-43-46-49-52-58(61)64-55-56(65-59(62)53-50-47-44-41-38-35-31-27-24-21-18-15-12-9-6-3)54-63-57(60)51-48-45-42-39-36-33-30-26-23-20-17-14-11-8-5-2/h18,21,24-25,27-28,56H,4-17,19-20,22-23,26,29-55H2,1-3H3/b21-18-,27-24-,28-25-
Instrument: AB Sciex TripleTOF 5600+ system (Q-TOF) equipped with a DuoSpray ion source
Instrument type: LC-ESI-QTOF
Ms type: MS2
Ion mode: POSITIVE
Collision energy: 45V
Column name: Acquity UPLC Peptide BEH C18 column (50*2.1 mm; 1.7 um; 130A)(Waters Co.,Milford, MA, USA)
Retention time: 15.22558
Precursor type: [M+NH4]+
Precursor m/z: 930.8526
Intensity: 10088
m/z	relative intensity
71.084	3
79.054	4
81.067	7
83.086	8
85.1	3
93.066	3
95.085	11
97.098	6
107.086	4
109.1	9
111.116	4
121.101	5
123.117	4
135.115	4
137.134	3
149.129	2
151.149	3
163.143	2
163.154	2
165.164	2
179.177	1
239.235	1
245.222	3
247.24	13
263.23	3
263.241	7
265.252	38
267.269	3
275.261	1
275.274	4
287.236	3
291.271	1
293.282	16
319.263	1
319.306	1
321.279	3
321.316	1
323.288	1
337.279	2
339.261	1
339.285	13
339.299	6
341.301	5
342.309	0
349.31	1
367.321	12
369.33	1
557.522	2
575.501	44
577.51	3
577.531	2
579.536	2
580.533	3
601.506	26
601.525	17
601.629	2
601.67	2
603.531	645
604.52	7
604.537	5
604.56	3
605.549	28
607.545	3
607.575	6
608.559	7
608.586	1
609.543	2
609.578	6
617.562	1
625.518	2
627.518	3
627.552	3
628.526	3
629.508	3
629.55	153
630.552	2
631.564	999
631.774	2
632.563	7
632.614	1
633.577	136
634.594	2
657.567	21
657.59	18
657.617	2
659.584	5
659.614	3
685.62	1
884.772	1
886.779	3
895.802	3
895.825	3
908.725	1
908.783	3
908.87	1
909.73	3
909.753	11
909.786	51
909.82	14
913.784	4
913.83	25
914.832	1
930.736	1
930.837	173
930.875	41
930.93	2
931.855	3
