Mass spectrum: TG 52:1; LC-ESI-QTOF; MS2
Name: TG 52:1
Class:  TAG
Formula: C55H104O6
Exact mass: 861.4309999999999
SMILES: CCCCCCCCCCCCCCCCCC(=O)OC(COC(=O)CCCCCCCCCCCCCCC)COC(=O)CCCCCCCCC\C=C/CCCCCC
InChI: InChI=1S/C55H104O6/c1-4-7-10-13-16-19-22-25-27-30-33-36-39-42-45-48-54(57)60-51-52(50-59-53(56)47-44-41-38-35-32-29-24-21-18-15-12-9-6-3)61-55(58)49-46-43-40-37-34-31-28-26-23-20-17-14-11-8-5-2/h19,22,52H,4-18,20-21,23-51H2,1-3H3/b22-19-
Instrument: AB Sciex TripleTOF 5600+ system (Q-TOF) equipped with a DuoSpray ion source
Instrument type: LC-ESI-QTOF
Ms type: MS2
Ion mode: POSITIVE
Collision energy: 45V
Column name: Acquity UPLC Peptide BEH C18 column (50*2.1 mm; 1.7 um; 130A)(Waters Co.,Milford, MA, USA)
Retention time: 15.14245
Precursor type: [M+NH4]+
Precursor m/z: 878.8179
Intensity: 32232
m/z	relative intensity
71.048	1
71.085	10
79.052	2
79.057	1
81.069	19
83.084	17
85.063	1
85.099	12
93.069	3
95.085	32
97.1	14
99.078	0
99.116	2
107.08	1
107.089	1
109.1	18
111.115	7
113.132	1
121.099	7
123.116	10
125.13	2
127.148	1
135.115	8
137.13	4
139.108	0
139.148	1
141.166	0
149.131	2
151.143	1
151.151	1
153.126	0
163.148	3
165.161	4
165.17	0
167.142	1
177.16	1
179.177	1
191.175	0
205.193	0
221.221	1
221.231	1
237.223	0
239.239	29
247.242	11
249.257	3
256.263	1
265.252	39
265.279	1
267.268	21
275.274	1
282.279	0
284.293	1
285.285	0
293.279	2
293.298	0
295.274	0
297.284	0
303.267	0
313.276	10
321.284	1
323.294	0
325.31	0
339.286	4
339.3	2
341.303	8
341.323	1
349.314	0
367.322	0
503.484	0
523.471	0
531.527	0
549.481	4
549.506	2
551.503	72
552.518	0
574.485	0
575.678	1
575.711	2
575.732	1
576.581	0
577.297	0
577.364	0
577.521	926
577.739	0
578.536	0
579.265	0
579.431	0
579.537	829
579.646	0
580.542	1
580.81	0
591.544	0
602.525	0
603.643	1
603.666	2
603.692	0
603.729	0
604.536	0
605.379	0
605.552	999
607.565	6
607.583	3
633.583	3
633.604	1
679.418	0
707.138	0
843.786	1
857.773	0
858.564	0
858.738	3
858.759	4
858.786	2
861.647	0
861.797	4
861.856	0
874.905	0
876.009	0
876.078	0
878.496	0
878.624	0
878.677	0
878.823	105
879.246	0
