Mass spectrum: TG 56:10; LC-ESI-QTOF; MS2
Name: TG 56:10
Class:  TAG
Formula: C59H94O6
Exact mass: 899.395
SMILES: CCCCC\C=C/C=C\CCCCCCCCC(=O)OCC(COC(=O)CCC\C=C/C\C=C/C\C=C/C\C=C/C\C=C/CC)OC(=O)CCCCCCCCC\C=C/C=C\C=C/CC
InChI: InChI=1S/C59H94O6/c1-4-7-10-13-16-19-22-25-28-29-32-34-37-40-43-46-49-52-58(61)64-55-56(65-59(62)53-50-47-44-41-38-35-31-27-24-21-18-15-12-9-6-3)54-63-57(60)51-48-45-42-39-36-33-30-26-23-20-17-14-11-8-5-2/h7,9-10,12,15-21,23-26,28,32,34,40,43,56H,4-6,8,11,13-14,22,27,29-31,33,35-39,41-42,44-55H2,1-3H3/b10-7-,12-9-,18-15-,19-16-,20-17-,24-21-,26-23-,28-25-,34-32-,43-40-
Instrument: AB Sciex TripleTOF 5600+ system (Q-TOF) equipped with a DuoSpray ion source
Instrument type: LC-ESI-QTOF
Ms type: MS2
Ion mode: POSITIVE
Collision energy: 45V
Column name: Acquity UPLC Peptide BEH C18 column (50*2.1 mm; 1.7 um; 130A)(Waters Co.,Milford, MA, USA)
Retention time: 13.71478
Precursor type: [M+NH4]+
Precursor m/z: 916.7379
Intensity: 1169
m/z	relative intensity
79.053	30
81.068	21
91.055	25
93.069	25
95.086	37
107.083	26
109.102	25
117.07	25
121.102	38
131.086	40
145.101	21
159.113	30
163.149	38
171.121	36
173.132	48
175.148	35
177.118	22
185.135	30
186.997	78
187.148	22
197.125	31
199.146	30
201.156	21
201.165	96
203.144	21
203.178	21
243.212	21
261.22	70
263.231	21
267.197	21
267.209	78
268.997	69
285.219	92
285.259	12
311.264	17
317.248	17
331.289	12
335.258	93
337.266	66
337.282	163
339.296	22
341.249	12
359.277	12
571.445	35
571.456	43
571.466	48
571.484	114
595.471	30
597.488	999
598.488	67
599.498	15
619.442	17
619.453	61
619.463	52
619.47	48
619.48	83
619.507	44
621.485	278
621.507	92
623.519	34
645.477	21
647.505	30
789.601	12
817.625	14
881.722	27
899.547	17
899.705	110
899.761	34
900.721	8
916.568	43
916.65	11
916.699	96
916.731	106
916.748	215
916.767	79
916.787	49
