Mass spectrum: BMP 44:11; LC-ESI-QTOF; MS2
Name: BMP 44:11
Class:  BMP
Formula: C50H77O10P
Exact mass: 869.132
SMILES: CC\C=C/C\C=C/C\C=C/C\C=C/C\C=C/CCCCCC(=O)OC(CO)COP(O)(=O)OCC(CO)OC(=O)CC\C=C/C\C=C/C\C=C/C\C=C/C\C=C/C\C=C/CC
InChI: InChI=1S/C50H77O10P/c1-3-5-7-9-11-13-15-17-19-21-23-25-27-29-31-33-35-37-39-41-49(53)59-47(43-51)45-57-61(55,56)58-46-48(44-52)60-50(54)42-40-38-36-34-32-30-28-26-24-22-20-18-16-14-12-10-8-6-4-2/h5-8,11-14,17-20,23-26,29-32,35,37,47-48,51-52H,3-4,9-10,15-16,21-22,27-28,33-34,36,38-46H2,1-2H3,(H,55,56)/b7-5-,8-6-,13-11-,14-12-,19-17-,20-18-,25-23-,26-24-,31-29-,32-30-,37-35-
Instrument: AB Sciex TripleTOF 5600+ system (Q-TOF) equipped with a DuoSpray ion source
Instrument type: LC-ESI-QTOF
Ms type: MS2
Ion mode: POSITIVE
Collision energy: 45V
Column name: Acquity UPLC Peptide BEH C18 column (50*2.1 mm; 1.7 um; 130A)(Waters Co.,Milford, MA, USA)
Retention time: 8.023847
Precursor type: [M+NH4]+
Precursor m/z: 886.5589
Intensity: 466
m/z	relative intensity
81.069	21
91.052	13
93.072	13
109.101	16
117.071	13
119.089	13
131.084	16
133.098	29
157.101	16
183.114	16
271.244	19
293.225	6
295.239	9
313.251	9
348.093	6
365.098	9
385.275	937
387.287	999
388.297	6
485.364	6
566.839	6
644.855	6
667.483	32
667.514	32
697.521	29
811.531	7
828.508	32
828.534	52
828.569	42
829.523	464
829.55	664
829.571	146
829.595	49
833.513	22
860.295	6
869.54	6
886.508	22
