Mass spectrum: TG 46:1; LC-ESI-QTOF; MS2
Name: TG 46:1
Class:  TAG
Formula: C49H92O6
Exact mass: 777.269
SMILES: CCCCCCCCCCCCCCCC(=O)OC(COC(=O)CCCCCCCCCCCCC)COC(=O)CCCCC\C=C/CCCCCCCC
InChI: InChI=1S/C49H92O6/c1-4-7-10-13-16-19-22-24-27-30-33-36-39-42-48(51)54-45-46(44-53-47(50)41-38-35-32-29-26-21-18-15-12-9-6-3)55-49(52)43-40-37-34-31-28-25-23-20-17-14-11-8-5-2/h24,27,46H,4-23,25-26,28-45H2,1-3H3/b27-24-
Instrument: AB Sciex TripleTOF 5600+ system (Q-TOF) equipped with a DuoSpray ion source
Instrument type: LC-ESI-QTOF
Ms type: MS2
Ion mode: POSITIVE
Collision energy: 45V
Column name: Acquity UPLC Peptide BEH C18 column (50*2.1 mm; 1.7 um; 130A)(Waters Co.,Milford, MA, USA)
Retention time: 14.10601
Precursor type: [M+NH4]+
Precursor m/z: 794.722
Intensity: 3394
m/z	relative intensity
71.085	24
79.054	7
81.069	32
83.085	21
85.1	22
95.086	34
97.1	22
107.083	9
109.099	18
109.106	12
111.112	6
121.097	7
121.107	7
123.115	15
137.132	15
183.177	14
209.192	6
211.205	63
219.209	12
221.228	11
237.22	30
239.233	24
239.243	23
247.241	9
265.254	23
282.277	1
285.235	11
285.253	8
292.963	1
293.246	1
311.265	10
313.274	13
321.28	1
339.286	4
408.939	2
417.172	2
424.984	1
447.42	2
456.973	1
467.415	3
493.405	11
493.425	15
495.439	416
495.486	6
519.809	5
521.454	999
523.471	748
547.794	3
549.486	865
550.487	3
551.503	113
551.568	3
575.708	4
577.501	44
577.521	202
577.551	35
605.543	15
605.579	5
630.977	3
685.425	1
686.432	10
777.704	6
784.967	2
794.504	1
794.598	1
794.682	9
794.711	42
794.732	28
794.754	14
794.774	8
795.723	1
