Mass spectrum: TG 58:10; LC-ESI-QTOF; MS2
Name: TG 58:10
Class:  TAG
Formula: C61H98O6
Exact mass: 927.449
SMILES: CCCCC\C=C/C=C\CCCCCCCCC(=O)OCC(COC(=O)CC\C=C/C\C=C/C\C=C/C\C=C/C\C=C/C\C=C/CC)OC(=O)CCCCCCCC\C=C/C=C\CCCCC
InChI: InChI=1S/C61H98O6/c1-4-7-10-13-16-19-22-25-28-29-30-31-34-36-39-42-45-48-51-54-60(63)66-57-58(67-61(64)55-52-49-46-43-40-37-33-27-24-21-18-15-12-9-6-3)56-65-59(62)53-50-47-44-41-38-35-32-26-23-20-17-14-11-8-5-2/h7,10,16-21,23-28,30-31,36,39,45,48,58H,4-6,8-9,11-15,22,29,32-35,37-38,40-44,46-47,49-57H2,1-3H3/b10-7-,19-16-,20-17-,21-18-,26-23-,27-24-,28-25-,31-30-,39-36-,48-45-
Instrument: AB Sciex TripleTOF 5600+ system (Q-TOF) equipped with a DuoSpray ion source
Instrument type: LC-ESI-QTOF
Ms type: MS2
Ion mode: POSITIVE
Collision energy: 45V
Column name: Acquity UPLC Peptide BEH C18 column (50*2.1 mm; 1.7 um; 130A)(Waters Co.,Milford, MA, USA)
Retention time: 13.98123
Precursor type: [M+NH4]+
Precursor m/z: 944.7676
Intensity: 9250
m/z	relative intensity
79.052	8
81.069	24
83.086	6
91.053	10
93.069	10
95.084	22
97.101	3
105.07	7
107.082	6
109.1	14
117.069	4
119.085	10
121.1	13
123.118	10
131.088	8
133.098	7
135.116	6
143.084	4
145.101	6
147.115	6
149.13	6
157.096	3
157.106	4
159.118	7
161.132	9
163.149	9
169.103	7
171.118	9
173.13	8
175.147	15
181.101	4
183.118	6
185.126	5
185.138	6
187.142	3
187.152	6
189.126	4
189.164	5
197.132	6
199.151	6
201.163	13
203.181	6
209.133	9
211.15	10
213.162	9
215.18	7
225.158	4
227.177	8
227.189	4
237.164	5
245.225	11
251.188	3
261.22	7
263.237	40
265.195	5
265.254	4
267.212	4
269.228	11
283.202	4
283.242	5
283.256	1
291.21	3
293.226	38
295.205	2
301.258	1
307.2	1
309.22	3
309.238	1
311.237	48
311.267	1
313.265	2
313.287	1
317.237	2
317.254	3
319.265	7
321.279	1
323.258	1
329.247	1
335.248	4
335.263	4
337.273	52
339.288	14
349.252	1
365.262	1
367.261	5
383.256	1
385.274	2
385.296	1
391.284	5
393.317	1
417.324	1
525.4	1
525.462	2
543.471	1
549.495	2
555.46	2
571.442	2
571.479	2
573.463	3
573.48	4
575.5	2
576.49	2
591.477	2
597.463	2
597.492	7
597.612	2
597.645	2
599.502	999
600.477	4
600.503	20
600.535	9
601.516	21
617.484	1
621.496	2
623.505	2
625.505	4
625.534	3
645.474	28
645.498	30
647.506	314
648.498	5
648.525	5
649.518	64
650.519	2
663.497	3
665.492	2
673.521	0
719.564	0
725.566	0
751.596	0
779.607	0
805.633	0
819.646	0
831.628	1
843.66	0
843.714	0
845.666	1
857.629	0
857.667	1
859.658	0
873.661	10
873.697	24
873.72	12
874.687	2
909.706	2
909.747	4
927.705	10
927.741	61
927.785	13
928.745	2
944.682	2
944.736	37
944.768	188
944.802	60
944.855	2
945.775	14
