Mass spectrum: TG 54:6; LC-ESI-QTOF; MS2
Name: TG 54:6
Class:  TAG
Formula: C57H98O6
Exact mass: 879.405
SMILES: CCCCCCCCCCCCCCCC(=O)OCC(COC(=O)CCC\C=C/C\C=C/C\C=C/C\C=C/CCCCC)OC(=O)CCCCCCCC\C=C/C=C\CCCCC
InChI: InChI=1S/C57H98O6/c1-4-7-10-13-16-19-22-25-27-28-30-32-35-38-41-44-47-50-56(59)62-53-54(52-61-55(58)49-46-43-40-37-34-31-24-21-18-15-12-9-6-3)63-57(60)51-48-45-42-39-36-33-29-26-23-20-17-14-11-8-5-2/h16-17,19-20,23,25-27,30,32,38,41,54H,4-15,18,21-22,24,28-29,31,33-37,39-40,42-53H2,1-3H3/b19-16-,20-17-,26-23-,27-25-,32-30-,41-38-
Instrument: AB Sciex TripleTOF 5600+ system (Q-TOF) equipped with a DuoSpray ion source
Instrument type: LC-ESI-QTOF
Ms type: MS2
Ion mode: POSITIVE
Collision energy: 45V
Column name: Acquity UPLC Peptide BEH C18 column (50*2.1 mm; 1.7 um; 130A)(Waters Co.,Milford, MA, USA)
Retention time: 14.23648
Precursor type: [M+NH4]+
Precursor m/z: 896.7683
Intensity: 46550
m/z	relative intensity
71.085	4
77.038	1
79.054	8
81.07	22
83.05	0
83.086	7
85.065	2
85.1	5
91.054	13
93.07	8
95.085	22
97.065	2
97.1	5
99.081	1
99.116	1
105.07	10
107.085	8
109.101	13
111.081	1
111.116	1
113.093	0
113.099	0
113.134	0
115.052	0
117.069	7
119.086	14
121.1	10
123.08	1
123.116	10
125.097	2
125.131	1
127.11	0
129.069	2
131.084	7
133.101	15
135.079	1
135.116	6
137.095	1
137.132	6
139.15	0
141.127	0
143.084	3
145.101	5
147.082	0
147.117	9
149.096	1
149.133	3
151.11	0
151.148	2
153.126	0
155.083	0
157.1	7
159.117	5
161.097	1
161.132	11
163.112	1
163.148	7
165.127	1
165.163	3
167.142	0
167.151	0
169.099	1
171.117	16
173.132	8
175.112	2
175.148	16
177.129	1
177.163	7
179.143	1
179.178	1
181.16	0
183.121	1
185.132	15
187.11	0
187.147	10
189.127	4
189.163	18
191.147	0
191.18	5
193.157	1
195.119	0
197.131	1
199.148	10
201.128	0
201.164	12
203.146	2
203.179	93
205.158	0
205.192	1
207.174	1
209.131	0
211.148	0
213.166	8
215.142	0
215.179	3
217.155	0
217.164	0
217.196	1
219.174	0
219.213	0
221.189	0
221.227	2
225.16	0
227.181	5
229.198	1
231.175	0
231.211	0
235.168	0
237.222	1
239.183	0
239.237	21
241.196	4
243.212	5
245.192	1
245.225	12
245.237	2
247.243	0
249.182	0
253.198	0
255.208	0
256.26	1
256.274	0
257.224	0
257.246	1
259.204	4
259.242	10
261.221	2
263.191	0
263.236	27
265.25	1
267.211	2
269.227	85
271.244	2
275.266	0
281.233	0
283.202	0
283.24	0
285.221	5
287.199	0
287.238	103
289.252	1
295.244	0
297.22	0
299.242	0
301.24	0
301.259	0
305.252	0
307.249	0
311.256	6
313.273	110
315.234	0
317.251	0
319.262	5
319.274	1
323.238	0
325.256	0
335.257	1
335.272	0
337.273	87
339.291	7
341.246	0
341.313	0
343.262	5
355.287	0
357.279	0
359.256	1
359.283	0
361.273	2
363.292	0
365.259	0
365.278	0
367.284	5
369.302	0
391.283	2
391.297	1
393.303	0
419.321	0
421.334	0
423.326	0
437.331	0
437.373	0
447.345	0
449.372	0
451.385	0
459.349	0
461.366	0
465.395	0
465.41	0
473.363	0
475.375	0
483.439	0
485.352	0
487.374	0
487.398	0
499.397	0
501.469	1
503.415	0
507.451	0
511.385	0
519.481	0
521.453	0
523.441	0
525.398	0
525.452	0
525.468	1
525.487	0
531.405	0
531.448	1
531.466	1
539.441	0
543.479	0
547.475	0
549.437	0
549.474	9
551.498	0
557.455	0
567.481	0
569.463	0
573.488	4
573.53	0
573.677	0
573.705	3
573.744	0
575.363	0
575.501	999
576.475	0
576.502	3
576.546	0
577.515	11
577.54	1
585.481	0
595.459	1
597.469	3
597.492	11
597.627	0
598.491	0
599.503	195
600.498	0
600.523	0
601.518	4
601.548	0
603.514	0
603.528	0
603.544	0
605.498	0
613.512	0
615.5	1
617.508	2
621.549	0
622.492	0
623.502	236
624.495	0
624.514	0
625.504	5
625.526	7
629.531	0
629.55	0
639.482	0
639.511	0
641.502	0
641.524	1
651.548	0
671.437	0
685.579	0
697.564	0
699.596	0
711.585	0
713.585	0
715.609	0
727.56	0
727.604	0
729.611	0
739.573	0
739.636	0
741.568	0
741.6	0
741.627	0
749.601	0
753.627	0
755.623	0
767.61	0
767.639	0
769.647	0
769.7	0
781.621	0
781.665	0
795.631	0
795.658	0
795.685	0
795.717	0
809.64	0
809.681	0
813.705	0
814.694	2
814.745	0
836.601	0
843.729	0
851.677	0
851.708	0
851.744	0
861.725	10
861.759	1
861.781	0
876.958	0
877.029	0
878.732	0
879.545	0
879.67	0
879.74	95
880.74	0
893.919	0
893.963	0
893.999	0
896.654	0
896.688	1
896.768	165
896.852	0
897.72	0
897.769	0
897.807	0
