Mass spectrum: TG 58:7; LC-ESI-QTOF; MS2
Name: TG 58:7
Class:  TAG
Formula: C61H104O6
Exact mass: 933.497
SMILES: CCCCCCCCCCCCCCCCCC(=O)OCC(COC(=O)CC\C=C/C\C=C/C\C=C/C\C=C/C\C=C/C\C=C/CC)OC(=O)CCCCCCCCC\C=C/CCCCCC
InChI: InChI=1S/C61H104O6/c1-4-7-10-13-16-19-22-25-28-29-30-31-34-36-39-42-45-48-51-54-60(63)66-57-58(67-61(64)55-52-49-46-43-40-37-33-27-24-21-18-15-12-9-6-3)56-65-59(62)53-50-47-44-41-38-35-32-26-23-20-17-14-11-8-5-2/h7,10,16,19,21,24-25,28,30-31,36,39,45,48,58H,4-6,8-9,11-15,17-18,20,22-23,26-27,29,32-35,37-38,40-44,46-47,49-57H2,1-3H3/b10-7-,19-16-,24-21-,28-25-,31-30-,39-36-,48-45-
Instrument: AB Sciex TripleTOF 5600+ system (Q-TOF) equipped with a DuoSpray ion source
Instrument type: LC-ESI-QTOF
Ms type: MS2
Ion mode: POSITIVE
Collision energy: 45V
Column name: Acquity UPLC Peptide BEH C18 column (50*2.1 mm; 1.7 um; 130A)(Waters Co.,Milford, MA, USA)
Retention time: 14.70709
Precursor type: [M+NH4]+
Precursor m/z: 950.8174
Intensity: 22866
m/z	relative intensity
71.085	5
79.054	4
81.069	11
83.085	8
85.101	5
91.054	6
93.07	6
95.085	17
97.101	8
105.068	4
107.085	6
109.099	9
111.115	3
111.121	1
117.068	5
119.085	7
121.095	2
121.102	6
123.117	6
129.07	3
131.086	6
133.101	4
135.117	7
137.133	3
141.068	2
143.084	3
145.101	4
147.114	2
149.133	5
155.083	1
157.102	5
159.114	6
161.134	5
163.148	5
165.164	2
167.085	2
169.099	6
171.117	11
173.132	9
175.148	6
181.1	5
183.116	6
185.133	7
187.113	3
187.145	3
189.125	4
195.112	2
195.124	2
197.131	5
199.147	9
201.127	3
201.163	8
201.174	2
203.141	2
203.179	3
209.131	4
211.145	10
213.162	8
215.142	2
215.18	11
223.146	8
225.163	6
227.14	2
227.178	12
229.154	2
237.163	4
239.18	3
239.235	3
241.157	4
247.24	10
249.259	2
251.175	3
265.192	3
265.253	22
267.213	3
267.269	13
269.191	1
269.222	8
275.272	1
283.203	1
283.239	4
283.255	0
284.288	1
285.278	1
291.209	2
293.196	1
293.226	49
293.283	5
295.242	0
309.222	2
311.236	70
313.266	4
313.279	5
337.273	0
339.266	2
339.29	23
339.309	4
341.304	34
349.313	0
351.227	1
367.261	4
367.281	1
367.303	1
367.323	4
367.342	0
383.245	1
383.267	1
385.267	0
393.299	3
395.31	1
395.324	1
421.331	1
473.371	0
489.395	1
491.414	0
527.411	1
529.425	0
531.516	0
539.411	0
557.471	1
559.482	1
567.444	0
569.463	0
575.477	3
577.482	1
577.509	1
579.526	2
579.554	1
585.497	0
601.512	1
601.535	2
603.531	7
603.558	1
603.632	1
603.664	2
604.533	0
605.203	0
605.548	999
606.546	9
606.574	5
621.476	1
621.499	1
623.502	46
629.545	1
630.549	2
631.546	0
631.572	2
632.57	0
645.482	3
649.517	201
650.527	1
650.557	1
651.534	171
652.533	2
653.566	0
667.528	1
669.536	1
673.484	0
673.508	2
673.533	1
673.558	0
677.523	4
677.552	29
678.571	0
679.591	0
693.544	0
811.67	0
823.694	1
837.729	0
849.692	0
851.715	1
863.682	1
863.745	0
867.734	0
868.686	0
868.727	7
868.764	8
882.759	0
882.792	0
912.793	0
915.752	2
915.796	4
929.742	46
929.768	40
929.82	2
930.744	1
930.789	0
933.752	7
933.789	53
933.83	4
933.862	0
934.81	1
947.835	1
950.814	224
951.8	3
951.84	2
