Mass spectrum: TG 56:9; LC-ESI-QTOF; MS2
Name: TG 56:9
Class:  TAG
Formula: C59H96O6
Exact mass: 901.4110000000001
SMILES: CCCCC\C=C/C=C\CCCCCCCCC(=O)OCC(COC(=O)CCC\C=C/C\C=C/C\C=C/C\C=C/C\C=C/CC)OC(=O)CCCCCCCC\C=C/C=C\CCCCC
InChI: InChI=1S/C59H96O6/c1-4-7-10-13-16-19-22-25-28-29-32-34-37-40-43-46-49-52-58(61)64-55-56(65-59(62)53-50-47-44-41-38-35-31-27-24-21-18-15-12-9-6-3)54-63-57(60)51-48-45-42-39-36-33-30-26-23-20-17-14-11-8-5-2/h7,10,16-21,23-28,32,34,40,43,56H,4-6,8-9,11-15,22,29-31,33,35-39,41-42,44-55H2,1-3H3/b10-7-,19-16-,20-17-,21-18-,26-23-,27-24-,28-25-,34-32-,43-40-
Instrument: AB Sciex TripleTOF 5600+ system (Q-TOF) equipped with a DuoSpray ion source
Instrument type: LC-ESI-QTOF
Ms type: MS2
Ion mode: POSITIVE
Collision energy: 45V
Column name: Acquity UPLC Peptide BEH C18 column (50*2.1 mm; 1.7 um; 130A)(Waters Co.,Milford, MA, USA)
Retention time: 13.87659
Precursor type: [M+NH4]+
Precursor m/z: 918.7532
Intensity: 14083
m/z	relative intensity
81.068	35
83.085	10
91.054	17
93.069	23
95.085	39
107.088	10
109.1	24
117.068	14
119.085	12
121.1	23
123.115	13
131.085	20
133.096	12
135.117	17
145.101	12
149.13	13
157.101	12
159.117	20
161.132	22
163.148	12
169.1	12
171.115	22
173.133	30
175.142	14
175.151	19
185.13	17
187.146	19
189.162	12
197.131	15
199.157	12
201.163	89
211.146	12
225.161	12
245.219	12
245.233	15
263.237	55
267.204	36
267.217	25
283.211	11
285.223	64
293.232	14
301.26	5
311.235	16
311.255	22
313.263	5
317.241	7
319.268	16
323.23	4
335.257	17
337.274	132
339.283	19
339.303	5
341.248	6
344.978	6
357.25	4
359.255	4
367.275	3
391.285	7
461.36	3
529.452	4
547.439	9
571.468	8
573.486	306
595.467	7
597.478	17
597.501	14
597.643	5
598.487	11
598.525	5
599.504	999
600.505	11
601.492	5
601.522	14
603.538	7
617.515	8
617.549	5
619.442	4
619.472	64
619.552	4
620.454	11
621.487	488
622.471	8
622.506	9
623.495	26
623.511	20
639.508	4
645.479	4
647.504	68
681.589	1
721.575	1
777.616	4
791.636	2
797.644	1
798.687	4
803.65	1
805.619	2
817.63	2
821.7	1
824.696	1
831.674	4
835.705	1
836.659	4
836.697	6
883.719	9
897.904	3
898.947	2
900.713	668
900.993	2
901.754	31
918.669	10
918.751	316
918.787	59
918.836	3
919.767	7
