Mass spectrum: TG 47:3; LC-ESI-QTOF; MS2
Name: TG 47:3
Class:  TAG
Formula: C50H90O6
Exact mass: 787.264
SMILES: CCCCCCCCCCCCCC(=O)OCC(COC(=O)CCCCCCCC\C=C/C=C\CCCCC)OC(=O)CCCCCCC\C=C/CCCCC
InChI: InChI=1S/C50H90O6/c1-4-7-10-13-16-19-22-24-25-26-29-31-34-37-40-43-49(52)55-46-47(45-54-48(51)42-39-36-33-30-27-21-18-15-12-9-6-3)56-50(53)44-41-38-35-32-28-23-20-17-14-11-8-5-2/h16-17,19-20,22,24,47H,4-15,18,21,23,25-46H2,1-3H3/b19-16-,20-17-,24-22-
Instrument: AB Sciex TripleTOF 5600+ system (Q-TOF) equipped with a DuoSpray ion source
Instrument type: LC-ESI-QTOF
Ms type: MS2
Ion mode: POSITIVE
Collision energy: 45V
Column name: Acquity UPLC Peptide BEH C18 column (50*2.1 mm; 1.7 um; 130A)(Waters Co.,Milford, MA, USA)
Retention time: 13.78279
Precursor type: [M+NH4]+
Precursor m/z: 804.7079
Intensity: 370
m/z	relative intensity
81.067	91
95.084	170
109.096	85
123.114	85
186.994	127
203.179	106
221.191	127
226.987	279
245.223	106
263.231	106
268.981	85
308.993	113
311.258	49
313.023	42
313.274	191
319.273	49
339.278	49
390.996	127
433.026	49
472.994	63
505.413	215
505.451	127
507.441	999
519.453	236
521.461	127
531.436	298
533.451	543
533.472	368
545.453	260
547.477	366
549.468	238
549.497	366
559.465	281
561.479	149
561.511	191
573.473	149
573.499	127
587.503	234
601.518	187
603.528	106
787.677	42
804.685	127
804.714	127
