Mass spectrum: TG 54:6; LC-ESI-QTOF; MS2
Name: TG 54:6
Class:  TAG
Formula: C57H98O6
Exact mass: 879.405
SMILES: CCCCC\C=C/C=C\CCCCCCCCC(=O)OCC(COC(=O)CCCCCCCC\C=C/C=C\CCCCC)OC(=O)CCCCCCCC\C=C/C=C\CCCCC
InChI: InChI=1S/C57H98O6/c1-4-7-10-13-16-19-22-25-28-31-34-37-40-43-46-49-55(58)61-52-54(63-57(60)51-48-45-42-39-36-33-30-27-24-21-18-15-12-9-6-3)53-62-56(59)50-47-44-41-38-35-32-29-26-23-20-17-14-11-8-5-2/h16-27,54H,4-15,28-53H2,1-3H3/b19-16-,20-17-,21-18-,25-22-,26-23-,27-24-
Instrument: AB Sciex TripleTOF 5600+ system (Q-TOF) equipped with a DuoSpray ion source
Instrument type: LC-ESI-QTOF
Ms type: MS2
Ion mode: POSITIVE
Collision energy: 45V
Column name: Acquity UPLC Peptide BEH C18 column (50*2.1 mm; 1.7 um; 130A)(Waters Co.,Milford, MA, USA)
Retention time: 14.2494
Precursor type: [M+NH4]+
Precursor m/z: 896.7682
Intensity: 35909
m/z	relative intensity
71.084	5
77.038	1
79.054	6
81.069	22
83.085	8
85.063	1
85.101	6
91.054	12
93.069	10
95.085	24
97.062	2
97.101	6
99.082	1
105.068	11
107.084	6
109.101	15
111.081	1
111.115	2
113.094	1
117.07	7
119.085	16
121.1	12
123.08	1
123.116	10
125.097	2
129.068	4
131.086	6
133.101	17
135.08	1
135.115	6
137.096	1
137.131	8
143.086	3
145.1	7
147.117	8
149.094	1
149.132	5
151.148	4
157.1	9
159.111	2
159.119	3
161.096	2
161.131	11
163.113	2
163.148	9
165.166	2
171.117	16
173.132	8
175.113	3
175.147	17
177.156	2
177.166	7
183.117	1
185.132	15
187.146	8
187.155	4
189.127	4
189.162	18
191.18	5
199.147	11
201.165	13
203.149	2
203.18	93
207.171	1
213.166	7
215.177	2
217.156	1
217.195	1
219.177	1
219.211	2
221.225	2
227.178	4
229.197	1
237.221	2
239.235	21
241.194	4
243.213	6
245.226	15
247.24	1
259.205	5
259.244	12
261.22	1
263.237	26
265.254	3
267.21	2
269.226	89
270.228	1
271.24	3
277.217	0
285.219	6
287.237	103
288.239	2
289.255	1
301.249	0
311.256	10
313.273	112
314.273	2
317.243	0
319.269	5
327.268	0
335.26	2
337.273	91
338.276	1
339.289	12
343.264	6
353.271	0
359.26	1
361.272	2
367.27	0
367.287	3
391.283	4
393.303	1
435.341	0
451.375	1
461.377	0
473.355	0
485.372	0
487.383	0
499.379	0
501.475	0
507.453	1
511.38	0
521.461	0
525.45	0
525.475	1
531.443	2
531.465	1
533.463	0
539.421	0
547.468	0
549.463	4
549.489	6
557.456	0
567.48	1
571.48	0
573.471	0
573.486	3
573.507	1
573.688	0
573.718	3
575.361	1
575.501	999
576.506	49
577.532	4
577.549	1
593.515	0
597.479	19
597.509	4
597.642	0
599.504	194
600.501	3
600.518	2
601.512	3
603.531	2
615.488	0
615.523	1
617.492	1
617.524	1
623.504	264
624.503	5
625.472	0
625.508	14
625.533	7
626.522	1
629.546	0
641.496	0
641.523	0
711.618	0
713.568	0
715.61	0
727.588	0
729.601	0
741.593	0
753.59	0
753.644	0
755.605	0
755.645	0
767.617	0
767.636	0
767.671	0
769.648	0
781.634	0
783.67	0
795.63	0
795.679	0
795.713	0
851.74	0
861.682	0
861.726	9
861.759	2
862.728	0
876.966	0
879.744	95
879.834	0
880.726	1
880.765	2
880.794	0
889.672	0
889.705	0
889.727	1
889.77	0
893.947	0
894.003	0
896.638	0
896.769	158
897.717	0
897.769	7
897.795	3
897.826	0
