Mass spectrum: TG 53:2; LC-ESI-QTOF; MS2
Name: TG 53:2
Class:  TAG
Formula: C56H104O6
Exact mass: 873.442
SMILES: CCCCCCCCCCCCCCCC(=O)OCC(COC(=O)CCCCCCC\C=C/CCCCCCCCC)OC(=O)CCCCCCCCC\C=C/CCCCCC
InChI: InChI=1S/C56H104O6/c1-4-7-10-13-16-19-22-25-27-29-31-34-37-40-43-46-49-55(58)61-52-53(51-60-54(57)48-45-42-39-36-33-30-24-21-18-15-12-9-6-3)62-56(59)50-47-44-41-38-35-32-28-26-23-20-17-14-11-8-5-2/h20,23,27,29,53H,4-19,21-22,24-26,28,30-52H2,1-3H3/b23-20-,29-27-
Instrument: AB Sciex TripleTOF 5600+ system (Q-TOF) equipped with a DuoSpray ion source
Instrument type: LC-ESI-QTOF
Ms type: MS2
Ion mode: POSITIVE
Collision energy: 45V
Column name: Acquity UPLC Peptide BEH C18 column (50*2.1 mm; 1.7 um; 130A)(Waters Co.,Milford, MA, USA)
Retention time: 14.97826
Precursor type: [M+NH4]+
Precursor m/z: 890.8166
Intensity: 5081
m/z	relative intensity
81.07	17
83.086	25
85.101	8
93.07	5
95.085	23
97.104	11
109.103	15
111.119	6
121.1	9
123.115	9
135.119	11
149.136	5
165.16	6
239.231	11
245.224	7
247.234	6
247.246	7
253.251	5
263.237	12
265.252	44
279.263	11
279.285	3
281.29	2
293.281	2
313.264	7
313.284	3
319.263	2
321.287	2
327.079	4
327.287	9
339.271	4
339.297	12
341.308	3
353.304	4
355.325	5
383.135	8
439.17	2
439.189	3
439.201	9
495.26	17
495.277	8
547.482	6
549.484	7
551.309	4
551.33	6
561.486	5
563.479	4
563.498	10
563.527	6
575.504	153
577.499	93
577.516	297
578.505	4
578.543	5
589.503	106
589.527	97
589.671	4
591.531	999
592.535	4
592.563	9
593.508	13
593.546	146
593.58	19
603.498	27
603.535	290
604.555	6
605.547	129
605.601	3
607.391	10
615.621	3
617.548	567
618.535	4
619.562	48
619.592	8
631.553	6
631.586	7
645.578	4
663.442	5
855.757	1
870.749	1
873.723	2
873.785	14
873.828	4
874.781	1
890.713	4
890.779	71
890.814	102
890.845	26
890.88	4
891.817	5
