Mass spectrum: TG 56:9; LC-ESI-QTOF; MS2
Name: TG 56:9
Class:  TAG
Formula: C59H96O6
Exact mass: 901.4110000000001
SMILES: CCCCC\C=C/C=C\CCCCCCCCC(=O)OCC(COC(=O)CCC\C=C/C\C=C/C\C=C/C\C=C/C\C=C/CC)OC(=O)CCCCCCCC\C=C/C=C\CCCCC
InChI: InChI=1S/C59H96O6/c1-4-7-10-13-16-19-22-25-28-29-32-34-37-40-43-46-49-52-58(61)64-55-56(65-59(62)53-50-47-44-41-38-35-31-27-24-21-18-15-12-9-6-3)54-63-57(60)51-48-45-42-39-36-33-30-26-23-20-17-14-11-8-5-2/h7,10,16-21,23-28,32,34,40,43,56H,4-6,8-9,11-15,22,29-31,33,35-39,41-42,44-55H2,1-3H3/b10-7-,19-16-,20-17-,21-18-,26-23-,27-24-,28-25-,34-32-,43-40-
Instrument: AB Sciex TripleTOF 5600+ system (Q-TOF) equipped with a DuoSpray ion source
Instrument type: LC-ESI-QTOF
Ms type: MS2
Ion mode: POSITIVE
Collision energy: 45V
Column name: Acquity UPLC Peptide BEH C18 column (50*2.1 mm; 1.7 um; 130A)(Waters Co.,Milford, MA, USA)
Retention time: 13.87111
Precursor type: [M+NH4]+
Precursor m/z: 918.7501
Intensity: 327355
m/z	relative intensity
71.048	1
71.085	1
77.037	9
79.053	30
81.069	70
83.047	2
83.084	14
85.063	4
85.099	1
91.053	41
93.069	39
95.049	1
95.085	69
97.064	3
97.1	11
99.078	3
103.055	1
105.069	29
107.084	30
109.062	1
109.1	46
111.079	4
111.114	4
113.093	3
115.053	3
116.06	0
117.069	26
119.084	35
121.1	43
123.079	2
123.115	30
125.095	5
127.111	2
128.06	3
129.068	14
131.085	44
133.099	37
135.079	1
135.115	31
137.091	2
137.101	0
137.131	15
139.109	2
141.068	4
141.127	1
142.077	0
143.084	12
145.1	33
147.081	1
147.116	28
149.093	2
149.131	21
151.111	2
151.147	8
153.069	1
153.125	4
154.075	0
155.084	8
156.09	0
157.099	17
159.115	43
161.095	3
161.131	43
163.108	3
163.146	26
165.126	3
165.161	3
167.083	2
167.141	3
168.088	0
169.101	19
171.116	33
173.095	1
173.131	44
175.109	4
175.147	49
177.128	4
177.162	9
179.143	3
179.177	1
181.099	2
181.157	2
182.109	0
183.116	22
185.13	50
186.134	0
187.112	3
187.147	39
189.124	4
189.162	24
191.142	3
191.178	4
193.157	4
195.109	1
195.117	3
196.123	0
197.131	29
199.11	1
199.122	0
199.147	36
200.152	0
201.124	3
201.162	176
202.168	1
203.143	4
203.177	9
205.156	2
205.192	1
207.113	0
207.171	3
207.185	0
209.131	4
209.15	0
211.146	23
213.125	1
213.139	0
213.162	11
215.143	8
215.177	6
217.15	1
217.162	2
217.194	3
219.171	1
219.209	2
221.132	1
221.153	1
221.188	2
223.147	4
223.168	0
224.153	1
225.161	21
227.138	1
227.18	5
229.156	4
229.195	2
231.172	1
231.21	0
233.229	1
235.145	1
235.168	1
235.24	1
237.159	1
237.219	1
238.168	0
239.178	11
241.159	2
241.192	10
243.175	3
243.209	15
245.225	37
247.171	0
247.238	2
249.17	1
249.185	1
251.176	1
253.193	2
255.172	1
255.205	1
255.217	1
257.186	3
257.225	12
259.202	1
259.238	1
261.178	0
261.22	15
263.173	0
263.199	0
263.236	118
265.194	10
265.251	6
267.21	163
268.211	0
269.189	1
269.225	8
271.163	0
271.205	0
271.242	0
273.184	0
273.221	0
273.256	0
275.162	0
275.235	0
277.191	0
277.212	1
279.191	0
279.211	0
279.235	1
281.188	1
281.222	0
283.204	17
283.243	1
284.336	0
285.22	160
287.229	2
287.242	2
289.182	0
289.212	0
289.254	1
293.225	1
295.202	0
295.224	0
295.25	0
297.256	0
299.234	0
301.203	0
301.218	0
301.248	1
301.264	0
303.225	0
303.265	0
305.227	0
307.24	0
309.22	0
309.252	0
311.2	0
311.231	1
311.255	4
313.247	0
313.269	2
314.271	1
315.232	0
315.277	0
317.245	4
317.267	0
319.237	0
319.261	25
321.244	0
321.271	0
321.284	1
323.233	1
325.285	0
327.264	0
331.257	0
333.24	1
335.255	23
336.217	0
336.239	0
337.272	479
338.274	0
339.235	0
339.287	26
341.245	11
343.263	0
345.274	1
351.278	0
353.291	0
355.245	0
355.286	0
355.308	0
357.233	2
357.245	2
357.26	0
359.257	7
361.246	0
361.281	0
363.267	0
365.271	1
367.259	0
367.292	0
371.292	0
373.333	0
375.317	0
379.289	1
381.313	0
383.288	0
383.324	0
385.289	0
385.31	0
385.337	0
389.268	0
391.283	16
393.293	0
393.305	0
395.328	0
397.303	0
397.347	0
403.297	0
405.318	0
407.334	0
409.334	0
409.348	0
411.322	0
417.289	0
417.312	1
419.302	0
421.315	0
423.315	0
423.333	0
425.325	0
425.341	0
425.383	0
431.361	0
433.341	0
435.331	0
437.33	0
437.355	0
437.389	0
445.336	1
445.355	0
447.347	1
447.37	0
449.349	0
449.367	0
451.347	0
451.385	0
457.339	0
459.34	2
459.36	1
461.352	0
461.368	1
461.382	0
463.337	0
463.362	0
463.392	1
465.358	0
471.348	0
473.348	0
473.374	0
477.363	0
485.36	1
487.369	1
487.399	0
497.347	1
497.366	2
499.378	3
501.375	0
501.401	1
503.413	0
509.367	0
511.377	2
511.432	1
513.389	1
515.403	0
523.424	0
525.392	1
525.448	1
525.468	2
525.481	0
527.413	1
529.419	3
529.439	5
531.454	1
533.439	1
533.461	2
535.479	0
537.396	1
539.396	0
539.414	1
541.416	0
543.474	1
543.496	0
545.43	2
547.445	16
547.473	2
549.471	0
551.401	1
555.422	0
559.464	1
565.42	0
565.454	2
565.486	0
571.447	0
571.471	3
573.484	31
575.481	1
575.513	1
585.483	1
593.452	0
593.472	0
595.434	1
595.464	0
597.486	45
597.599	0
597.621	2
597.647	2
598.471	2
598.495	3
598.517	0
599.376	1
599.498	999
600.505	76
600.531	5
601.512	19
603.471	1
603.508	1
603.531	2
603.549	2
605.539	1
605.559	0
613.511	0
615.495	0
617.511	11
619.469	42
619.522	4
619.541	3
621.483	652
622.468	1
622.489	3
622.512	2
623.502	48
625.517	1
637.466	2
637.493	3
639.476	2
639.502	7
645.473	0
647.497	7
649.508	0
693.541	0
695.573	0
707.563	0
723.581	0
725.575	0
733.568	0
735.572	0
737.578	0
739.576	0
749.593	0
751.565	0
751.588	0
753.596	0
761.601	0
765.588	0
765.622	0
773.645	0
775.576	0
775.62	0
777.588	1
777.62	0
779.607	1
789.593	0
789.62	0
791.588	0
791.627	1
791.669	0
793.637	1
797.689	0
801.645	0
803.613	0
803.637	0
803.681	0
805.619	0
805.648	0
817.623	0
817.653	1
817.681	0
817.702	0
819.616	0
819.642	1
819.66	0
831.643	1
833.673	0
835.649	0
836.676	0
845.681	0
859.673	0
865.691	0
873.699	0
873.746	0
883.663	1
883.691	5
883.721	18
884.711	0
898.885	0
898.916	0
901.522	0
901.724	145
902.684	0
902.713	0
902.741	1
915.858	0
915.894	0
915.957	0
917.757	0
918.582	0
918.749	148
919.709	0
919.75	5
919.783	1
