Mass spectrum: TG 44:0; LC-ESI-QTOF; MS2
Name: TG 44:0
Class:  TAG
Formula: C47H90O6
Exact mass: 751.231
SMILES: CCCCCCCCCCCCCCCC(=O)OCC(COC(=O)CCCCCCCCCCC)OC(=O)CCCCCCCCCCCCCCC
InChI: InChI=1S/C47H90O6/c1-4-7-10-13-16-19-21-23-25-28-31-34-37-40-46(49)52-43-44(42-51-45(48)39-36-33-30-27-18-15-12-9-6-3)53-47(50)41-38-35-32-29-26-24-22-20-17-14-11-8-5-2/h44H,4-43H2,1-3H3
Instrument: AB Sciex TripleTOF 5600+ system (Q-TOF) equipped with a DuoSpray ion source
Instrument type: LC-ESI-QTOF
Ms type: MS2
Ion mode: POSITIVE
Collision energy: 45V
Column name: Acquity UPLC Peptide BEH C18 column (50*2.1 mm; 1.7 um; 130A)(Waters Co.,Milford, MA, USA)
Retention time: 14.07014
Precursor type: [M+NH4]+
Precursor m/z: 768.707
Intensity: 3324
m/z	relative intensity
81.07	27
83.084	23
85.1	33
95.084	31
97.098	5
99.117	9
109.101	35
123.114	9
151.148	5
183.174	15
211.206	73
239.224	15
239.241	36
285.242	18
313.273	5
341.296	3
467.391	7
467.427	26
493.894	6
495.444	999
509.487	4
521.671	4
521.843	8
522.922	4
523.475	766
523.513	28
549.796	4
551.506	312
551.557	5
579.539	23
768.509	3
768.713	25
