Mass spectrum: TG 54:3; LC-ESI-QTOF; MS2
Name: TG 54:3
Class:  TAG
Formula: C57H104O6
Exact mass: 885.453
SMILES: CCCCCC\C=C/CCCCCCCCCC(=O)OCC(COC(=O)CCCCCCCCC\C=C/CCCCCC)OC(=O)CCCCCCCCC\C=C/CCCCCC
InChI: InChI=1S/C57H104O6/c1-4-7-10-13-16-19-22-25-28-31-34-37-40-43-46-49-55(58)61-52-54(63-57(60)51-48-45-42-39-36-33-30-27-24-21-18-15-12-9-6-3)53-62-56(59)50-47-44-41-38-35-32-29-26-23-20-17-14-11-8-5-2/h19-24,54H,4-18,25-53H2,1-3H3/b22-19-,23-20-,24-21-
Instrument: AB Sciex TripleTOF 5600+ system (Q-TOF) equipped with a DuoSpray ion source
Instrument type: LC-ESI-QTOF
Ms type: MS2
Ion mode: POSITIVE
Collision energy: 45V
Column name: Acquity UPLC Peptide BEH C18 column (50*2.1 mm; 1.7 um; 130A)(Waters Co.,Milford, MA, USA)
Retention time: 14.86092
Precursor type: [M+NH4]+
Precursor m/z: 902.8152
Intensity: 149062
m/z	relative intensity
71.053	0
71.085	5
77.037	1
79.053	6
81.07	26
83.05	0
83.085	16
85.065	1
85.1	4
91.053	2
93.069	5
95.085	31
97.065	1
97.101	17
99.081	1
99.116	1
105.07	1
107.085	6
109.101	23
111.08	1
111.117	8
113.097	1
113.133	0
119.088	0
121.101	18
123.117	12
125.094	1
125.131	2
127.113	1
133.101	2
135.117	18
137.132	5
139.111	1
139.151	0
141.127	1
147.117	1
149.133	10
151.111	0
151.148	6
153.127	3
153.164	0
155.144	1
161.132	2
163.148	9
165.126	0
165.164	6
167.142	2
169.161	0
175.148	4
177.164	4
179.179	2
181.157	1
189.163	2
191.178	2
193.156	0
193.194	0
203.177	0
205.192	1
205.205	0
207.174	0
209.19	0
217.198	0
219.208	0
221.226	1
223.205	0
237.221	0
239.235	5
245.227	9
247.243	29
249.258	1
263.238	34
265.253	98
267.268	10
273.261	0
275.266	0
275.279	1
277.219	0
279.232	0
282.281	1
283.258	0
284.292	0
285.274	0
287.238	0
289.248	0
291.245	0
291.272	1
293.285	5
301.255	0
303.26	0
311.258	0
313.274	4
319.261	8
319.304	0
321.281	4
323.284	0
323.302	1
325.311	0
335.254	0
337.246	0
337.272	5
338.228	0
338.274	0
339.29	43
341.306	15
347.293	0
349.31	0
365.306	0
367.317	2
367.336	1
377.268	0
393.301	0
417.415	0
419.342	0
477.394	0
493.417	0
509.467	0
519.446	0
527.463	0
527.484	0
527.499	0
529.497	3
545.484	0
547.458	0
547.477	0
547.504	0
549.49	0
555.51	0
563.499	0
565.513	0
566.501	0
566.523	0
566.54	0
573.458	0
573.488	1
573.513	0
573.703	0
575.502	195
576.505	0
576.531	0
577.518	28
578.521	1
578.552	0
579.539	0
580.533	1
580.558	0
583.506	0
589.503	0
589.53	0
591.532	1
592.518	0
599.603	0
599.635	0
599.65	0
599.671	0
601.348	0
601.411	0
601.518	485
601.636	0
602.52	2
602.547	0
603.203	0
603.343	0
603.369	0
603.412	1
603.533	999
603.981	0
604.142	0
604.523	3
604.547	18
605.152	0
605.549	524
606.0	0
606.081	0
606.559	3
606.6	0
607.88	0
611.816	0
615.262	0
617.552	0
619.551	0
619.573	0
621.554	0
627.572	0
628.535	0
629.551	202
630.541	0
630.562	0
631.564	24
657.572	0
661.554	0
673.607	0
675.546	0
689.57	0
731.62	0
745.645	0
773.706	0
787.684	0
787.722	0
801.715	0
801.761	0
857.744	0
865.782	0
865.821	0
867.736	0
867.774	7
867.81	1
883.019	0
885.725	0
885.79	49
886.799	0
899.936	0
899.982	0
900.0	0
900.08	0
900.871	0
902.816	117
903.549	0
903.787	0
903.827	2
