Mass spectrum: TG 48:4; LC-ESI-QTOF; MS2
Name: TG 48:4
Class:  TAG
Formula: C51H90O6
Exact mass: 799.275
SMILES: CCCCCCCCCCCC(=O)OCC(COC(=O)CCCCCCCCC\C=C/C=C\C=C/CC)OC(=O)CCCCCCCCC\C=C/CCCCCC
InChI: InChI=1S/C51H90O6/c1-4-7-10-13-16-19-21-23-25-27-29-32-35-38-41-44-50(53)56-47-48(46-55-49(52)43-40-37-34-31-18-15-12-9-6-3)57-51(54)45-42-39-36-33-30-28-26-24-22-20-17-14-11-8-5-2/h7,10,13,16,19-22,48H,4-6,8-9,11-12,14-15,17-18,23-47H2,1-3H3/b10-7-,16-13-,21-19-,22-20-
Instrument: AB Sciex TripleTOF 5600+ system (Q-TOF) equipped with a DuoSpray ion source
Instrument type: LC-ESI-QTOF
Ms type: MS2
Ion mode: POSITIVE
Collision energy: 45V
Column name: Acquity UPLC Peptide BEH C18 column (50*2.1 mm; 1.7 um; 130A)(Waters Co.,Milford, MA, USA)
Retention time: 13.73605
Precursor type: [M+NH4]+
Precursor m/z: 816.7067
Intensity: 3210
m/z	relative intensity
79.055	22
81.07	90
93.069	22
95.084	80
97.101	30
109.103	38
121.102	44
135.117	26
149.133	22
161.126	22
163.148	31
175.149	26
183.173	35
186.992	117
189.166	22
207.173	35
209.188	22
211.204	40
217.192	22
237.224	36
243.209	26
245.225	26
257.211	23
261.223	121
263.238	116
268.998	162
277.219	13
279.228	8
285.238	40
292.966	8
299.233	8
311.259	17
313.268	44
317.235	26
317.263	39
319.264	8
337.278	48
339.283	13
350.998	13
433.004	39
465.393	8
471.418	8
517.417	217
519.407	86
519.437	999
521.452	482
521.471	206
543.424	99
543.446	135
545.429	99
545.455	457
545.477	76
547.455	76
547.474	161
549.476	26
571.435	31
571.447	80
571.472	365
573.465	90
573.492	144
575.492	108
575.513	35
575.536	45
599.493	279
599.511	202
601.491	36
601.508	35
601.544	35
758.569	8
781.662	44
799.66	117
799.685	62
799.706	44
816.468	8
816.69	117
816.713	99
