Mass spectrum: TG 49:1; LC-ESI-QTOF; MS2
Name: TG 49:1
Class:  TAG
Formula: C52H98O6
Exact mass: 819.35
SMILES: CCCCCCCCCCCCCCCC(=O)OC(COC(=O)CCCCCCCCCCCCCC)COC(=O)CCCCCCCCC\C=C/CCCCCC
InChI: InChI=1S/C52H98O6/c1-4-7-10-13-16-19-22-25-26-28-30-33-36-39-42-45-51(54)57-48-49(47-56-50(53)44-41-38-35-32-29-24-21-18-15-12-9-6-3)58-52(55)46-43-40-37-34-31-27-23-20-17-14-11-8-5-2/h19,22,49H,4-18,20-21,23-48H2,1-3H3/b22-19-
Instrument: AB Sciex TripleTOF 5600+ system (Q-TOF) equipped with a DuoSpray ion source
Instrument type: LC-ESI-QTOF
Ms type: MS2
Ion mode: POSITIVE
Collision energy: 45V
Column name: Acquity UPLC Peptide BEH C18 column (50*2.1 mm; 1.7 um; 130A)(Waters Co.,Milford, MA, USA)
Retention time: 14.56454
Precursor type: [M+NH4]+
Precursor m/z: 836.7677
Intensity: 6730
m/z	relative intensity
81.069	46
83.086	29
85.102	21
95.086	37
97.1	21
109.103	21
121.103	14
123.12	24
137.135	21
225.225	14
239.243	65
265.252	44
285.247	14
327.281	16
523.476	21
535.49	36
537.488	529
537.509	104
549.489	432
551.495	50
551.513	89
563.488	350
563.51	999
563.552	66
565.519	230
565.552	43
577.52	677
577.566	43
591.52	59
591.56	36
836.482	14
836.614	21
836.76	88
