Mass spectrum: TG 49:2; LC-ESI-QTOF; MS2
Name: TG 49:2
Class:  TAG
Formula: C52H96O6
Exact mass: 817.3340000000001
SMILES: CCCCCCCCCCCCCC(=O)OCC(COC(=O)CCCCCCCCC\C=C/CCCCCC)OC(=O)CCCCC\C=C/CCCCCCCCC
InChI: InChI=1S/C52H96O6/c1-4-7-10-13-16-19-22-24-26-28-30-33-36-39-42-45-51(54)57-48-49(47-56-50(53)44-41-38-35-32-29-21-18-15-12-9-6-3)58-52(55)46-43-40-37-34-31-27-25-23-20-17-14-11-8-5-2/h19,22,27,31,49H,4-18,20-21,23-26,28-30,32-48H2,1-3H3/b22-19-,31-27-
Instrument: AB Sciex TripleTOF 5600+ system (Q-TOF) equipped with a DuoSpray ion source
Instrument type: LC-ESI-QTOF
Ms type: MS2
Ion mode: POSITIVE
Collision energy: 45V
Column name: Acquity UPLC Peptide BEH C18 column (50*2.1 mm; 1.7 um; 130A)(Waters Co.,Milford, MA, USA)
Retention time: 14.30218
Precursor type: [M+NH4]+
Precursor m/z: 834.7516
Intensity: 1195
m/z	relative intensity
71.083	13
81.068	24
83.084	20
85.101	10
95.085	31
97.1	21
107.088	8
109.102	21
111.117	12
121.101	20
123.12	8
135.119	15
137.135	11
149.13	8
149.144	9
151.154	10
163.146	8
219.211	20
225.216	22
226.984	17
237.218	36
237.238	12
239.236	32
251.239	34
263.24	14
265.248	41
292.966	5
311.255	13
313.27	16
325.269	11
339.286	13
348.979	5
369.346	40
369.367	9
390.988	6
420.962	7
424.976	8
456.949	7
521.453	8
535.469	478
535.491	84
536.46	8
537.484	173
547.469	20
547.481	8
547.493	12
549.487	669
550.478	14
561.484	664
562.497	16
563.497	999
563.525	118
564.506	27
575.502	646
575.542	29
576.511	15
577.501	14
577.525	59
589.477	11
589.515	117
589.535	28
591.55	8
603.54	16
817.693	11
817.73	12
834.479	6
834.591	11
834.635	11
834.729	46
834.762	110
835.758	4
