Mass spectrum: TG 58:10; LC-ESI-QTOF; MS2
Name: TG 58:10
Class:  TAG
Formula: C61H98O6
Exact mass: 927.449
SMILES: CCCCCC\C=C/CCCCCCCCCC(=O)OCC(COC(=O)CCC\C=C/C\C=C/C\C=C/C\C=C/C\C=C/CC)OC(=O)CCC\C=C/C\C=C/C\C=C/C\C=C/CCCCC
InChI: InChI=1S/C61H98O6/c1-4-7-10-13-16-19-22-25-28-30-33-36-39-42-45-48-51-54-60(63)66-57-58(56-65-59(62)53-50-47-44-41-38-35-32-27-24-21-18-15-12-9-6-3)67-61(64)55-52-49-46-43-40-37-34-31-29-26-23-20-17-14-11-8-5-2/h7,10,16-17,19-21,24-26,28-29,33-34,36-37,42-43,45-46,58H,4-6,8-9,11-15,18,22-23,27,30-32,35,38-41,44,47-57H2,1-3H3/b10-7-,19-16-,20-17-,24-21-,28-25-,29-26-,36-33-,37-34-,45-42-,46-43-
Instrument: AB Sciex TripleTOF 5600+ system (Q-TOF) equipped with a DuoSpray ion source
Instrument type: LC-ESI-QTOF
Ms type: MS2
Ion mode: POSITIVE
Collision energy: 45V
Column name: Acquity UPLC Peptide BEH C18 column (50*2.1 mm; 1.7 um; 130A)(Waters Co.,Milford, MA, USA)
Retention time: 13.97473
Precursor type: [M+NH4]+
Precursor m/z: 944.7692
Intensity: 4047
m/z	relative intensity
79.053	15
81.068	29
91.054	14
93.07	15
95.081	16
95.09	14
105.069	13
109.102	13
119.085	14
123.119	17
161.131	14
163.147	13
171.117	19
173.13	17
175.147	18
201.164	17
211.147	15
223.148	12
227.183	19
245.225	16
263.234	43
267.208	12
283.242	11
291.208	3
293.224	29
309.218	6
311.237	49
319.264	14
321.217	3
335.252	8
337.274	57
337.296	6
339.297	6
367.267	6
391.28	4
499.377	3
503.418	3
537.382	3
543.49	3
555.446	4
573.456	4
573.493	5
595.466	3
596.483	5
597.49	8
597.62	7
599.504	999
601.513	13
617.517	3
645.476	20
645.492	7
645.512	11
647.504	425
649.495	8
649.516	15
707.573	1
733.578	2
747.602	1
805.647	1
857.678	2
862.704	4
909.697	4
909.739	13
924.686	8
924.726	20
927.711	13
927.744	58
927.763	22
941.804	3
944.739	91
944.77	181
944.798	90
944.881	4
