Mass spectrum: TG 56:2; LC-ESI-QTOF; MS2
Name: TG 56:2
Class:  TAG
Formula: C59H110O6
Exact mass: 915.523
SMILES: CCCCCCCCCCCCCCCCCCCC(=O)OCC(COC(=O)CCCCCCCCC\C=C/CCCCCC)OC(=O)CCCCCCCCC\C=C/CCCCCC
InChI: InChI=1S/C59H110O6/c1-4-7-10-13-16-19-22-25-28-29-32-34-37-40-43-46-49-52-58(61)64-55-56(65-59(62)53-50-47-44-41-38-35-31-27-24-21-18-15-12-9-6-3)54-63-57(60)51-48-45-42-39-36-33-30-26-23-20-17-14-11-8-5-2/h20-21,23-24,56H,4-19,22,25-55H2,1-3H3/b23-20-,24-21-
Instrument: AB Sciex TripleTOF 5600+ system (Q-TOF) equipped with a DuoSpray ion source
Instrument type: LC-ESI-QTOF
Ms type: MS2
Ion mode: POSITIVE
Collision energy: 45V
Column name: Acquity UPLC Peptide BEH C18 column (50*2.1 mm; 1.7 um; 130A)(Waters Co.,Milford, MA, USA)
Retention time: 15.61657
Precursor type: [M+NH4]+
Precursor m/z: 932.867
Intensity: 3146
m/z	relative intensity
71.083	3
79.056	3
81.07	13
83.086	13
85.103	5
93.07	3
95.085	11
95.095	2
97.102	10
109.102	8
111.117	3
121.101	7
123.118	5
125.13	3
135.116	5
137.134	3
149.131	2
151.15	2
163.15	4
165.168	5
177.159	2
191.182	2
193.193	2
237.224	2
239.228	3
239.246	3
247.244	12
249.264	2
265.256	46
267.27	10
275.262	2
275.282	3
293.275	5
293.289	14
293.308	1
295.304	4
303.307	2
313.278	2
321.286	3
321.317	5
339.284	9
339.304	5
341.308	6
349.329	2
367.319	3
369.325	4
369.357	2
377.337	2
549.491	15
575.508	14
577.467	3
577.524	204
577.556	21
579.526	3
599.487	3
599.524	5
603.475	3
603.536	353
604.525	4
604.558	2
605.554	544
605.621	3
606.549	10
607.549	2
607.57	11
607.594	5
627.521	17
627.541	11
627.551	5
627.56	9
629.548	10
629.57	5
631.568	445
631.59	83
632.559	3
632.585	4
633.585	999
633.844	3
634.575	6
634.601	13
635.593	3
635.614	8
655.555	6
655.579	2
659.605	208
660.612	5
661.612	27
661.643	8
687.628	7
687.663	2
760.916	0
897.827	5
911.805	452
911.846	84
911.915	2
912.775	3
912.828	3
915.825	10
915.85	5
915.874	6
932.797	3
932.86	137
932.891	95
932.911	31
932.963	3
933.861	2
933.894	5
937.83	2
