Mass spectrum: TG 53:2; LC-ESI-QTOF; MS2
Name: TG 53:2
Class:  TAG
Formula: C56H104O6
Exact mass: 873.442
SMILES: CCCCCCCCCCCCCCCC(=O)OCC(COC(=O)CCCCCCC\C=C/CCCCCCCCC)OC(=O)CCCCCCCCC\C=C/CCCCCC
InChI: InChI=1S/C56H104O6/c1-4-7-10-13-16-19-22-25-27-29-31-34-37-40-43-46-49-55(58)61-52-53(51-60-54(57)48-45-42-39-36-33-30-24-21-18-15-12-9-6-3)62-56(59)50-47-44-41-38-35-32-28-26-23-20-17-14-11-8-5-2/h20,23,27,29,53H,4-19,21-22,24-26,28,30-52H2,1-3H3/b23-20-,29-27-
Instrument: AB Sciex TripleTOF 5600+ system (Q-TOF) equipped with a DuoSpray ion source
Instrument type: LC-ESI-QTOF
Ms type: MS2
Ion mode: POSITIVE
Collision energy: 45V
Column name: Acquity UPLC Peptide BEH C18 column (50*2.1 mm; 1.7 um; 130A)(Waters Co.,Milford, MA, USA)
Retention time: 14.9806
Precursor type: [M+NH4]+
Precursor m/z: 890.8151
Intensity: 2486
m/z	relative intensity
71.084	5
81.071	11
83.084	12
85.101	6
95.085	16
97.101	11
107.086	3
109.099	8
111.117	6
121.1	6
123.118	6
135.116	3
137.132	3
149.137	4
163.148	4
165.164	4
186.995	3
239.235	7
247.238	9
247.251	4
253.253	12
263.231	7
263.253	4
265.252	48
267.269	4
279.264	8
282.267	1
293.279	2
313.275	10
319.267	1
321.283	3
327.284	8
327.301	3
337.288	1
339.293	9
341.309	1
353.298	1
355.324	4
356.901	1
368.981	1
549.49	6
551.483	4
551.52	6
563.495	19
563.512	29
563.552	5
565.49	8
565.5	11
565.516	47
565.546	22
575.502	128
577.519	327
578.525	6
579.527	6
589.511	90
589.539	38
589.687	5
591.537	999
592.53	19
592.565	10
593.539	82
593.56	51
603.535	291
604.525	9
604.559	4
605.547	52
605.57	26
617.551	306
618.55	6
619.554	10
619.577	16
631.543	6
631.578	14
690.923	1
852.984	1
855.754	3
856.818	1
864.717	3
864.776	6
864.825	7
865.756	1
869.775	1
873.776	8
873.807	4
873.845	3
890.726	7
890.77	28
890.812	90
890.845	38
890.899	3
891.785	3
891.86	3
895.747	1
