Mass spectrum: TG 46:0; LC-ESI-QTOF; MS2
Name: TG 46:0
Class:  TAG
Formula: C49H94O6
Exact mass: 779.285
SMILES: CCCCCCCCCCCCCCCC(=O)OCC(COC(=O)CCCCCCCCCCCCC)OC(=O)CCCCCCCCCCCCCCC
InChI: InChI=1S/C49H94O6/c1-4-7-10-13-16-19-22-24-27-30-33-36-39-42-48(51)54-45-46(44-53-47(50)41-38-35-32-29-26-21-18-15-12-9-6-3)55-49(52)43-40-37-34-31-28-25-23-20-17-14-11-8-5-2/h46H,4-45H2,1-3H3
Instrument: AB Sciex TripleTOF 5600+ system (Q-TOF) equipped with a DuoSpray ion source
Instrument type: LC-ESI-QTOF
Ms type: MS2
Ion mode: POSITIVE
Collision energy: 45V
Column name: Acquity UPLC Peptide BEH C18 column (50*2.1 mm; 1.7 um; 130A)(Waters Co.,Milford, MA, USA)
Retention time: 14.38778
Precursor type: [M+NH4]+
Precursor m/z: 796.7363
Intensity: 38690
m/z	relative intensity
71.085	16
79.053	1
81.069	14
83.084	12
85.064	1
85.1	16
93.073	0
95.085	29
97.101	9
99.116	5
109.101	20
111.117	4
113.132	3
123.117	12
125.132	2
127.147	2
137.132	7
139.147	1
141.161	1
151.145	3
165.162	1
193.19	1
193.202	1
211.205	39
221.225	5
228.234	1
229.219	1
239.237	57
256.265	3
257.246	0
275.259	0
285.238	4
285.261	0
295.266	0
297.273	0
299.29	0
313.27	9
313.293	1
341.3	0
417.257	0
495.434	11
509.446	0
521.824	3
521.843	2
521.856	1
521.894	0
523.261	0
523.359	0
523.469	999
523.672	0
524.474	1
537.475	2
537.498	0
549.77	1
549.796	0
551.502	563
552.037	0
552.505	0
579.499	0
579.527	2
579.547	2
772.927	0
796.733	23
796.761	7
796.835	0
