Mass spectrum: TG 48:3; LC-ESI-QTOF; MS2
Name: TG 48:3
Class:  TAG
Formula: C51H92O6
Exact mass: 801.2909999999999
SMILES: CCCCCCCCCCCC(=O)OCC(COC(=O)CCCCCCCC\C=C/C=C\CCCCC)OC(=O)CCCCCCCCC\C=C/CCCCCC
InChI: InChI=1S/C51H92O6/c1-4-7-10-13-16-19-21-23-25-27-29-32-35-38-41-44-50(53)56-47-48(46-55-49(52)43-40-37-34-31-18-15-12-9-6-3)57-51(54)45-42-39-36-33-30-28-26-24-22-20-17-14-11-8-5-2/h16,19-23,48H,4-15,17-18,24-47H2,1-3H3/b19-16-,22-20-,23-21-
Instrument: AB Sciex TripleTOF 5600+ system (Q-TOF) equipped with a DuoSpray ion source
Instrument type: LC-ESI-QTOF
Ms type: MS2
Ion mode: POSITIVE
Collision energy: 45V
Column name: Acquity UPLC Peptide BEH C18 column (50*2.1 mm; 1.7 um; 130A)(Waters Co.,Milford, MA, USA)
Retention time: 13.91959
Precursor type: [M+NH4]+
Precursor m/z: 818.7197
Intensity: 229751
m/z	relative intensity
71.049	1
71.085	16
77.038	3
79.054	15
80.825	0
81.07	71
83.048	1
83.085	30
85.064	2
85.101	15
91.054	6
93.069	20
95.085	78
97.065	3
97.101	21
99.08	6
99.116	3
105.07	4
107.084	16
109.1	47
111.08	2
111.116	14
113.096	2
113.132	1
119.084	5
121.101	36
123.116	36
125.095	3
125.125	0
125.132	1
127.112	2
133.101	9
135.116	33
137.132	19
139.11	3
141.127	2
145.101	0
147.116	9
149.133	17
151.11	0
151.149	8
153.126	6
155.144	1
159.116	1
161.132	12
163.147	16
165.129	1
165.164	7
167.143	2
171.114	0
173.131	2
175.148	14
177.162	7
179.144	2
179.177	2
181.158	2
183.173	19
187.155	1
189.163	7
191.179	8
193.157	2
193.195	3
195.176	0
203.179	3
205.198	1
207.173	4
209.189	14
211.205	53
215.179	0
217.194	3
219.211	25
221.149	0
221.192	1
221.227	0
228.235	2
229.215	0
235.168	1
235.203	3
237.22	57
239.237	12
243.217	1
245.227	36
247.242	7
249.183	1
256.272	0
257.192	0
257.212	8
261.221	5
263.199	0
263.236	99
265.252	22
267.229	0
275.242	0
277.214	0
279.228	0
283.225	6
283.249	0
284.355	0
285.241	32
291.223	0
291.239	0
293.242	1
293.254	1
293.284	0
295.26	0
299.253	0
301.25	1
309.242	0
309.255	0
311.257	29
313.273	12
317.251	1
319.263	18
321.274	1
321.297	0
323.222	0
335.26	2
337.234	0
337.272	22
339.29	13
347.336	0
349.307	0
351.249	0
351.284	0
361.35	0
363.25	0
377.26	0
377.28	0
387.375	0
391.284	0
401.354	0
405.301	0
405.377	0
409.332	0
411.363	0
415.414	0
421.33	0
423.341	0
433.343	0
433.388	0
435.341	0
437.357	0
445.402	0
447.344	0
447.421	0
449.36	1
461.365	0
463.373	0
463.412	0
465.436	0
471.418	1
473.426	0
473.451	0
477.397	0
481.431	1
489.398	0
491.409	4
493.406	0
493.427	1
495.457	0
499.433	1
499.454	2
505.422	0
507.431	0
507.474	0
508.437	0
509.46	0
510.453	0
517.416	0
517.437	1
517.462	1
517.823	0
519.439	397
519.82	1
519.842	0
519.879	0
520.432	0
521.127	0
521.294	0
521.454	999
522.108	0
522.46	2
523.281	0
523.469	22
527.472	1
527.492	0
533.445	1
533.463	1
535.456	2
535.485	1
543.755	0
545.456	313
545.759	1
545.78	0
547.357	1
547.469	927
548.454	1
548.481	1
549.488	56
550.489	0
551.503	0
555.474	0
559.475	1
561.5	1
563.491	0
571.682	1
571.706	1
573.485	766
574.483	1
574.5	1
575.502	286
577.457	0
577.506	7
577.525	9
587.487	0
589.512	0
591.51	0
599.635	0
601.516	353
602.506	0
603.533	10
617.535	0
619.53	0
629.541	1
629.56	1
671.598	0
673.633	0
675.561	0
677.57	0
689.588	0
703.59	0
703.632	0
717.644	0
783.652	2
783.677	7
783.697	6
799.195	0
801.696	52
802.694	0
816.165	0
818.722	111
819.685	0
