Mass spectrum: TG 52:2; LC-ESI-QTOF; MS2
Name: TG 52:2
Class:  TAG
Formula: C55H102O6
Exact mass: 859.415
SMILES: CCCCCCCCCCCCCCCC(=O)OCC(COC(=O)CCCCCCCCC\C=C/CCCCCC)OC(=O)CCCCCCCCC\C=C/CCCCCC
InChI: InChI=1S/C55H102O6/c1-4-7-10-13-16-19-22-25-27-30-33-36-39-42-45-48-54(57)60-51-52(50-59-53(56)47-44-41-38-35-32-29-24-21-18-15-12-9-6-3)61-55(58)49-46-43-40-37-34-31-28-26-23-20-17-14-11-8-5-2/h19-20,22-23,52H,4-18,21,24-51H2,1-3H3/b22-19-,23-20-
Instrument: AB Sciex TripleTOF 5600+ system (Q-TOF) equipped with a DuoSpray ion source
Instrument type: LC-ESI-QTOF
Ms type: MS2
Ion mode: POSITIVE
Collision energy: 45V
Column name: Acquity UPLC Peptide BEH C18 column (50*2.1 mm; 1.7 um; 130A)(Waters Co.,Milford, MA, USA)
Retention time: 14.7469
Precursor type: [M+NH4]+
Precursor m/z: 876.8005
Intensity: 802
m/z	relative intensity
81.07	29
83.086	14
85.103	14
95.082	21
109.098	24
127.143	14
135.116	21
205.197	14
226.988	14
247.239	21
265.249	43
269.004	29
313.276	14
374.97	16
575.506	66
577.414	22
577.51	999
577.531	608
577.63	24
579.551	16
603.526	363
603.543	170
603.555	73
605.543	43
859.755	14
876.672	16
876.805	74
