Mass spectrum: TG 58:7; LC-ESI-QTOF; MS2
Name: TG 58:7
Class:  TAG
Formula: C61H104O6
Exact mass: 933.497
SMILES: CCCCCCCCCCCCCCCCCC(=O)OCC(COC(=O)CCCCC\C=C/C\C=C/C\C=C/C\C=C/C\C=C/CC)OC(=O)CCCCCCCC\C=C/C=C\CCCCC
InChI: InChI=1S/C61H104O6/c1-4-7-10-13-16-19-22-25-28-29-30-31-34-36-39-42-45-48-51-54-60(63)66-57-58(67-61(64)55-52-49-46-43-40-37-33-27-24-21-18-15-12-9-6-3)56-65-59(62)53-50-47-44-41-38-35-32-26-23-20-17-14-11-8-5-2/h7,10,16,18-19,21,24-25,27-28,30-31,36,39,58H,4-6,8-9,11-15,17,20,22-23,26,29,32-35,37-38,40-57H2,1-3H3/b10-7-,19-16-,21-18-,27-24-,28-25-,31-30-,39-36-
Instrument: AB Sciex TripleTOF 5600+ system (Q-TOF) equipped with a DuoSpray ion source
Instrument type: LC-ESI-QTOF
Ms type: MS2
Ion mode: POSITIVE
Collision energy: 45V
Column name: Acquity UPLC Peptide BEH C18 column (50*2.1 mm; 1.7 um; 130A)(Waters Co.,Milford, MA, USA)
Retention time: 14.53751
Precursor type: [M+NH4]+
Precursor m/z: 950.8187
Intensity: 1896
m/z	relative intensity
91.052	30
105.07	37
163.146	30
175.144	40
187.147	36
201.167	61
203.178	98
243.211	42
245.233	30
259.244	36
263.24	61
269.225	85
275.277	24
287.237	104
293.28	49
295.226	19
313.26	80
315.273	24
319.257	30
323.276	25
337.262	30
337.284	73
339.292	36
341.298	74
343.281	18
367.321	122
421.364	18
575.49	55
575.512	61
577.525	49
601.51	85
603.539	235
612.5	25
623.487	55
623.513	246
625.515	42
627.538	30
628.543	30
629.546	999
629.577	123
649.526	71
651.524	149
651.545	61
651.561	68
653.545	329
653.575	79
677.549	79
867.727	61
868.743	669
868.789	49
868.834	18
882.727	12
905.76	30
907.764	18
915.775	39
933.768	142
933.803	116
933.841	49
941.833	12
950.76	42
950.814	490
950.851	117
