Mass spectrum: BMP 40:6; LC-ESI-QTOF; MS2
Name: BMP 40:6
Class:  BMP
Formula: C46H79O10P
Exact mass: 823.1039999999999
SMILES: CCCCC\C=C/C\C=C/CCCCCCCC(=O)OC(CO)COP(O)(=O)OCC(CO)OC(=O)CCCCCCCC\C=C/C\C=C/C\C=C/C\C=C/CC
InChI: InChI=1S/C46H79O10P/c1-3-5-7-9-11-13-15-17-19-20-21-22-24-26-28-30-32-34-36-38-46(50)56-44(40-48)42-54-57(51,52)53-41-43(39-47)55-45(49)37-35-33-31-29-27-25-23-18-16-14-12-10-8-6-4-2/h5,7,11-14,17-19,21-23,43-44,47-48H,3-4,6,8-10,15-16,20,24-42H2,1-2H3,(H,51,52)/b7-5-,13-11-,14-12-,19-17-,22-21-,23-18-
Instrument: AB Sciex TripleTOF 5600+ system (Q-TOF) equipped with a DuoSpray ion source
Instrument type: LC-ESI-QTOF
Ms type: MS2
Ion mode: POSITIVE
Collision energy: 45V
Column name: Acquity UPLC Peptide BEH C18 column (50*2.1 mm; 1.7 um; 130A)(Waters Co.,Milford, MA, USA)
Retention time: 8.197155
Precursor type: [M+NH4]+
Precursor m/z: 840.5703
Intensity: 858
m/z	relative intensity
95.083	43
245.229	43
263.231	108
337.273	999
337.284	310
339.297	173
387.299	71
389.299	885
389.309	242
389.318	132
