Mass spectrum: TG 54:2; LC-ESI-QTOF; MS2
Name: TG 54:2
Class:  TAG
Formula: C57H106O6
Exact mass: 887.4689999999999
SMILES: CCCCCCCCCCCCCCCC(=O)OCC(COC(=O)CCCCCCCCC\C=C/CCCCCCCC)OC(=O)CCCCCCCCC\C=C/CCCCCC
InChI: InChI=1S/C57H106O6/c1-4-7-10-13-16-19-22-25-27-28-30-32-35-38-41-44-47-50-56(59)62-53-54(52-61-55(58)49-46-43-40-37-34-31-24-21-18-15-12-9-6-3)63-57(60)51-48-45-42-39-36-33-29-26-23-20-17-14-11-8-5-2/h20,23,25,27,54H,4-19,21-22,24,26,28-53H2,1-3H3/b23-20-,27-25-
Instrument: AB Sciex TripleTOF 5600+ system (Q-TOF) equipped with a DuoSpray ion source
Instrument type: LC-ESI-QTOF
Ms type: MS2
Ion mode: POSITIVE
Collision energy: 45V
Column name: Acquity UPLC Peptide BEH C18 column (50*2.1 mm; 1.7 um; 130A)(Waters Co.,Milford, MA, USA)
Retention time: 15.19084
Precursor type: [M+NH4]+
Precursor m/z: 904.8298
Intensity: 237493
m/z	relative intensity
71.047	0
71.085	13
77.039	1
79.054	6
81.07	36
83.085	29
85.063	1
85.069	0
85.1	13
91.052	1
93.069	8
95.085	46
97.065	2
97.101	27
99.08	2
99.116	3
101.096	0
105.069	0
107.084	7
109.101	33
111.08	2
111.116	16
113.094	1
113.132	1
119.083	0
121.101	25
123.116	19
125.095	1
125.131	5
127.111	1
127.147	1
129.129	0
133.099	0
135.116	23
137.132	10
139.111	2
139.15	1
141.125	0
141.133	0
141.162	0
147.114	0
149.132	14
151.147	8
153.128	4
153.164	0
155.142	0
161.134	1
163.147	9
165.164	11
167.141	2
167.149	0
167.179	0
169.158	1
175.146	1
177.163	3
179.179	3
181.16	0
183.169	0
189.163	0
191.179	4
193.196	1
195.137	0
195.173	1
205.195	2
207.21	1
209.193	0
219.209	1
221.229	1
237.227	0
239.237	14
245.224	2
245.238	0
247.242	38
249.257	5
256.263	1
263.236	9
264.428	0
265.253	144
266.259	0
267.268	33
275.273	6
279.246	0
282.276	1
283.253	0
284.278	0
284.296	2
285.237	0
285.277	0
291.282	0
293.25	0
293.282	20
295.263	0
295.293	0
297.282	0
301.254	0
303.256	0
303.275	0
303.297	0
310.312	0
311.256	0
312.321	0
313.273	7
319.251	0
319.265	1
319.311	0
321.276	8
323.292	1
325.306	0
325.324	0
335.253	0
337.271	1
337.286	0
339.288	38
340.238	0
341.304	29
349.311	1
351.319	0
367.322	5
369.332	0
369.351	0
393.287	0
395.311	0
417.389	0
445.413	0
529.504	1
531.505	1
531.526	0
549.465	1
549.491	5
551.495	0
553.577	0
557.526	1
575.503	66
575.723	0
577.405	0
577.516	616
577.951	0
578.517	4
579.509	1
579.533	4
579.564	0
589.511	0
589.533	0
591.527	0
591.544	0
601.618	1
601.646	5
601.671	1
603.35	0
603.408	1
603.531	919
603.963	1
604.544	15
604.976	0
605.42	1
605.547	999
606.366	1
606.561	31
606.808	0
607.561	173
608.544	0
610.377	0
616.846	0
617.549	0
629.573	0
629.6	1
631.458	0
631.563	574
632.565	2
632.587	0
633.58	14
633.618	1
659.593	1
677.508	0
687.649	0
737.628	0
771.732	0
869.752	0
869.78	1
869.8	1
869.828	0
885.043	0
887.725	0
887.804	31
888.812	0
901.993	0
902.019	0
902.046	0
903.712	0
903.851	0
904.61	0
904.681	0
904.726	0
904.762	0
904.828	115
905.812	0
905.841	1
