Mass spectrum: TG 60:8; LC-ESI-QTOF; MS2
Name: TG 60:8
Class:  TAG
Formula: C63H106O6
Exact mass: 959.535
SMILES: CCCCCCCC\C=C/CCCCCCCCCC(=O)OC(COC(=O)CCCCCCCCC\C=C/CCCCCC)COC(=O)CC\C=C/C\C=C/C\C=C/C\C=C/C\C=C/C\C=C/CC
InChI: InChI=1S/C63H106O6/c1-4-7-10-13-16-19-22-25-28-30-31-33-35-38-41-44-47-50-53-56-62(65)68-59-60(58-67-61(64)55-52-49-46-43-40-37-34-27-24-21-18-15-12-9-6-3)69-63(66)57-54-51-48-45-42-39-36-32-29-26-23-20-17-14-11-8-5-2/h7,10,16,19,21,24-26,28-29,31,33,38,41,47,50,60H,4-6,8-9,11-15,17-18,20,22-23,27,30,32,34-37,39-40,42-46,48-49,51-59H2,1-3H3/b10-7-,19-16-,24-21-,28-25-,29-26-,33-31-,41-38-,50-47-
Instrument: AB Sciex TripleTOF 5600+ system (Q-TOF) equipped with a DuoSpray ion source
Instrument type: LC-ESI-QTOF
Ms type: MS2
Ion mode: POSITIVE
Collision energy: 45V
Column name: Acquity UPLC Peptide BEH C18 column (50*2.1 mm; 1.7 um; 130A)(Waters Co.,Milford, MA, USA)
Retention time: 14.75071
Precursor type: [M+NH4]+
Precursor m/z: 976.8359
Intensity: 2201
m/z	relative intensity
81.068	15
83.084	10
93.071	10
95.085	26
107.084	8
109.103	15
121.103	9
123.119	10
135.115	11
159.119	10
161.13	10
163.144	8
169.101	8
171.118	9
183.118	12
185.126	10
187.156	9
197.134	11
199.146	15
201.159	24
201.17	11
209.136	10
211.145	15
213.169	14
215.186	12
223.145	12
227.171	11
227.191	14
229.162	15
237.164	9
247.241	13
251.178	8
265.249	35
267.261	8
269.226	16
283.242	8
293.222	40
293.232	15
293.236	12
293.273	15
293.28	8
293.285	9
293.29	10
293.294	5
311.223	11
311.228	21
311.239	74
311.251	13
339.275	10
339.28	11
339.285	11
339.295	36
341.297	7
341.319	11
367.268	9
367.311	7
367.316	7
367.325	20
367.338	5
605.549	434
605.568	93
605.575	78
605.582	55
623.488	11
623.531	10
629.564	13
631.544	139
631.566	999
631.586	149
632.55	10
632.581	14
649.483	21
649.49	32
649.497	45
649.504	70
649.512	83
649.519	83
649.526	77
649.533	74
649.54	51
649.555	25
649.562	10
651.498	10
651.513	32
651.523	24
651.539	78
675.549	12
677.512	21
677.52	22
677.527	41
677.534	78
677.542	76
677.549	71
677.556	64
677.564	55
679.534	3
679.548	4
679.559	2
679.583	8
703.616	2
809.669	5
829.711	5
855.724	3
856.718	4
856.726	4
856.734	4
856.752	14
882.77	10
894.72	11
894.747	21
894.76	10
950.792	15
950.801	17
950.809	21
950.818	21
950.833	28
959.799	43
959.836	10
976.796	34
976.825	183
976.845	63
976.853	53
976.862	39
976.884	14
976.893	13
