Mass spectrum: TG 58:5; LC-ESI-QTOF; MS2
Name: TG 58:5
Class:  TAG
Formula: C61H108O6
Exact mass: 937.529
SMILES: CCCCCCCCCC\C=C/CCCCCCCCCC(=O)OCC(COC(=O)CCCCCCCC\C=C/C=C\CCCCC)OC(=O)CCCCCCCC\C=C/C=C\CCCCC
InChI: InChI=1S/C61H108O6/c1-4-7-10-13-16-19-22-25-28-29-30-31-34-36-39-42-45-48-51-54-60(63)66-57-58(67-61(64)55-52-49-46-43-40-37-33-27-24-21-18-15-12-9-6-3)56-65-59(62)53-50-47-44-41-38-35-32-26-23-20-17-14-11-8-5-2/h17-18,20-21,23-24,26-27,29-30,58H,4-16,19,22,25,28,31-57H2,1-3H3/b20-17-,21-18-,26-23-,27-24-,30-29-
Instrument: AB Sciex TripleTOF 5600+ system (Q-TOF) equipped with a DuoSpray ion source
Instrument type: LC-ESI-QTOF
Ms type: MS2
Ion mode: POSITIVE
Collision energy: 45V
Column name: Acquity UPLC Peptide BEH C18 column (50*2.1 mm; 1.7 um; 130A)(Waters Co.,Milford, MA, USA)
Retention time: 14.9786
Precursor type: [M+NH4]+
Precursor m/z: 954.8464
Intensity: 2308
m/z	relative intensity
95.084	17
97.1	7
109.1	16
121.1	14
123.12	7
135.117	8
163.147	11
173.131	10
175.149	14
177.162	9
245.229	14
261.218	14
263.236	58
289.26	6
293.283	8
303.317	7
319.261	14
321.316	30
337.279	23
339.296	9
345.312	6
367.33	12
377.346	8
395.347	22
459.392	5
525.465	12
575.511	9
599.499	536
599.521	97
599.543	46
600.496	32
601.488	12
601.505	9
601.52	36
603.535	16
607.565	13
617.546	10
624.508	16
627.521	33
627.538	82
627.571	16
629.536	45
629.556	50
631.56	32
631.603	14
653.536	25
654.562	12
655.544	32
655.569	86
657.586	999
658.582	59
659.59	11
659.622	25
681.557	3
681.612	3
825.675	4
839.736	10
853.708	7
863.778	4
869.723	3
872.742	10
872.798	14
919.836	16
935.765	124
935.793	477
935.821	145
935.87	29
937.784	21
937.805	65
937.84	92
937.862	18
954.734	9
954.811	46
954.819	62
954.846	188
954.885	71
