Mass spectrum: TG 48:1; LC-ESI-QTOF; MS2
Name: TG 48:1
Class:  TAG
Formula: C51H96O6
Exact mass: 805.323
SMILES: CCCCCCCCCCCCCCCC(=O)OCC(COC(=O)CCCCC\C=C/CCCCCCCC)OC(=O)CCCCCCCCCCCCCCC
InChI: InChI=1S/C51H96O6/c1-4-7-10-13-16-19-22-25-28-31-34-37-40-43-49(52)55-46-48(57-51(54)45-42-39-36-33-30-27-24-21-18-15-12-9-6-3)47-56-50(53)44-41-38-35-32-29-26-23-20-17-14-11-8-5-2/h25,28,48H,4-24,26-27,29-47H2,1-3H3/b28-25-
Instrument: AB Sciex TripleTOF 5600+ system (Q-TOF) equipped with a DuoSpray ion source
Instrument type: LC-ESI-QTOF
Ms type: MS2
Ion mode: POSITIVE
Collision energy: 45V
Column name: Acquity UPLC Peptide BEH C18 column (50*2.1 mm; 1.7 um; 130A)(Waters Co.,Milford, MA, USA)
Retention time: 14.41144
Precursor type: [M+NH4]+
Precursor m/z: 822.7596
Intensity: 131147
m/z	relative intensity
71.046	0
71.083	12
77.036	0
79.052	1
81.067	23
83.083	19
85.066	0
85.097	14
85.104	3
93.067	4
95.082	33
97.099	14
99.08	1
99.114	3
107.082	2
109.097	20
109.105	4
111.078	1
111.115	7
113.13	2
121.098	10
123.114	14
125.094	0
125.125	1
125.135	1
127.141	0
135.113	9
137.129	9
139.109	0
139.142	0
141.159	0
149.127	3
151.137	1
151.148	2
153.119	1
163.141	1
163.153	1
165.166	2
177.162	1
179.182	1
193.187	1
193.208	0
205.198	0
211.2	20
211.22	6
219.201	1
219.216	8
221.223	4
221.242	1
228.231	1
237.215	19
237.233	9
237.25	1
239.239	60
247.224	1
247.24	5
247.261	1
256.257	1
256.27	1
256.28	0
257.237	0
257.268	1
265.247	22
265.269	7
275.232	0
275.269	0
285.221	0
285.23	0
285.25	2
285.275	0
293.24	1
295.282	0
297.297	0
311.25	1
311.264	1
311.275	1
313.269	7
313.284	8
321.261	0
321.283	0
321.314	0
327.217	0
339.257	0
339.28	0
339.294	0
339.308	1
339.327	0
475.435	0
475.469	0
495.431	1
495.455	1
521.431	3
521.448	8
521.463	6
521.486	3
521.522	0
521.825	0
523.475	428
524.474	0
547.73	0
547.752	1
547.773	2
547.8	2
548.524	0
549.337	0
549.487	999
549.531	89
549.576	1
550.497	1
551.505	487
563.486	0
575.674	0
575.696	0
575.77	0
577.518	450
577.623	0
578.502	0
579.53	1
579.556	0
605.51	0
605.53	1
605.552	2
605.574	1
605.598	0
695.541	0
695.563	0
695.583	0
787.735	0
805.671	0
805.709	1
805.731	1
805.749	1
805.793	0
820.219	0
822.711	14
822.738	40
822.777	44
822.816	7
822.867	0
822.939	0
