Mass spectrum: TG 48:1; LC-ESI-QTOF; MS2
Name: TG 48:1
Class:  TAG
Formula: C51H96O6
Exact mass: 805.323
SMILES: CCCCCCCCCCCCCCCC(=O)OC(COC(=O)CCCCCCCCCCCCC)COC(=O)CCCCCCCCC\C=C/CCCCCC
InChI: InChI=1S/C51H96O6/c1-4-7-10-13-16-19-22-24-25-27-29-32-35-38-41-44-50(53)56-47-48(46-55-49(52)43-40-37-34-31-28-21-18-15-12-9-6-3)57-51(54)45-42-39-36-33-30-26-23-20-17-14-11-8-5-2/h19,22,48H,4-18,20-21,23-47H2,1-3H3/b22-19-
Instrument: AB Sciex TripleTOF 5600+ system (Q-TOF) equipped with a DuoSpray ion source
Instrument type: LC-ESI-QTOF
Ms type: MS2
Ion mode: POSITIVE
Collision energy: 45V
Column name: Acquity UPLC Peptide BEH C18 column (50*2.1 mm; 1.7 um; 130A)(Waters Co.,Milford, MA, USA)
Retention time: 14.41314
Precursor type: [M+NH4]+
Precursor m/z: 822.7525
Intensity: 320013
m/z	relative intensity
71.05	1
71.085	28
77.04	1
79.054	6
81.07	46
83.086	35
85.065	2
85.101	28
91.054	1
93.07	8
95.085	63
97.063	0
97.101	26
99.08	2
99.116	6
107.086	5
109.101	45
111.082	2
111.116	14
113.095	1
113.132	3
121.101	19
123.117	29
125.096	1
125.132	6
127.113	1
127.147	1
135.117	16
137.132	17
139.112	1
139.147	2
141.129	0
141.165	0
149.133	6
151.149	6
153.122	1
153.13	2
155.142	0
155.179	0
163.148	5
165.164	6
167.142	1
177.162	2
179.182	2
183.175	0
191.177	0
193.196	2
205.198	0
211.206	32
219.21	17
221.226	11
228.231	1
236.489	0
237.221	51
239.237	107
247.242	10
254.249	0
256.264	5
257.249	2
265.252	34
275.263	0
282.278	0
282.295	0
283.247	0
285.239	5
285.252	1
293.247	1
293.261	0
295.266	1
297.277	1
303.262	0
311.255	8
313.233	0
313.274	37
321.263	0
321.28	1
323.295	0
339.288	4
341.296	0
367.274	0
457.439	0
475.443	0
475.464	0
495.437	0
503.492	0
521.456	16
521.817	0
521.835	0
521.851	0
523.332	0
523.367	0
523.469	489
524.458	0
524.476	1
535.458	0
537.483	0
537.497	0
537.511	0
547.75	2
547.774	7
547.796	1
547.836	0
548.476	0
549.217	0
549.334	0
549.358	0
549.375	0
549.485	999
550.113	0
550.221	0
550.445	0
550.486	13
550.681	0
550.711	0
551.371	0
551.399	0
551.5	646
552.224	0
552.494	1
552.513	1
552.695	0
553.224	0
554.775	0
554.922	0
555.12	0
558.355	0
563.492	1
563.511	1
575.682	0
575.703	0
575.726	1
577.392	0
577.516	502
578.51	0
578.529	1
579.533	0
605.545	3
787.669	0
787.69	0
787.713	0
787.742	0
803.208	0
805.695	0
805.729	5
805.767	0
820.178	0
822.694	0
822.753	69
822.915	0
823.742	0
