Mass spectrum: TG 58:10; LC-ESI-QTOF; MS2
Name: TG 58:10
Class:  TAG
Formula: C61H98O6
Exact mass: 927.449
SMILES: CCCCCCCCCCCCCCCC(=O)OCC(COC(=O)CC\C=C/C\C=C/C\C=C/C\C=C/C\C=C/C\C=C/CC)OC(=O)CCC\C=C/C\C=C/C\C=C/C\C=C/CCCCC
InChI: InChI=1S/C61H98O6/c1-4-7-10-13-16-19-22-25-27-29-30-32-33-36-39-42-45-48-51-54-60(63)66-57-58(56-65-59(62)53-50-47-44-41-38-35-24-21-18-15-12-9-6-3)67-61(64)55-52-49-46-43-40-37-34-31-28-26-23-20-17-14-11-8-5-2/h7,10,16-17,19-20,25-28,30,32,34,36-37,39,43,45-46,48,58H,4-6,8-9,11-15,18,21-24,29,31,33,35,38,40-42,44,47,49-57H2,1-3H3/b10-7-,19-16-,20-17-,27-25-,28-26-,32-30-,37-34-,39-36-,46-43-,48-45-
Instrument: AB Sciex TripleTOF 5600+ system (Q-TOF) equipped with a DuoSpray ion source
Instrument type: LC-ESI-QTOF
Ms type: MS2
Ion mode: POSITIVE
Collision energy: 45V
Column name: Acquity UPLC Peptide BEH C18 column (50*2.1 mm; 1.7 um; 130A)(Waters Co.,Milford, MA, USA)
Retention time: 14.10824
Precursor type: [M+NH4]+
Precursor m/z: 944.7687
Intensity: 5731
m/z	relative intensity
81.07	26
91.054	35
93.067	28
95.086	37
109.101	20
117.069	30
119.084	31
121.1	26
131.081	18
133.103	24
143.082	24
145.098	28
147.117	18
157.102	24
159.117	37
161.134	18
171.116	50
173.133	45
175.144	24
183.117	24
185.138	24
187.15	31
189.159	22
199.145	26
201.156	22
201.168	30
203.18	121
213.164	22
223.147	20
227.178	34
239.227	18
239.245	18
269.225	82
285.218	8
285.241	7
287.236	87
291.212	13
293.223	43
309.217	14
311.237	72
313.272	403
337.277	9
361.278	24
367.275	37
367.298	11
385.256	18
385.271	39
385.286	20
547.485	7
549.472	22
573.496	11
575.503	24
587.509	16
588.5	46
589.507	15
589.536	11
597.481	20
599.501	772
600.501	37
600.531	9
601.489	10
601.51	34
601.541	16
603.521	7
621.541	9
623.5	999
624.505	22
671.5	299
671.547	9
672.525	8
799.622	3
803.637	3
825.706	6
826.67	6
826.714	7
846.746	5
863.728	9
869.752	11
876.712	9
886.763	7
927.728	37
927.756	30
927.774	26
944.685	15
944.763	349
944.806	81
944.838	13
945.766	20
