Mass spectrum: TG 62:7; LC-ESI-QTOF; MS2
Name: TG 62:7
Class:  TAG
Formula: C65H112O6
Exact mass: 989.6049999999999
SMILES: CCCCCCCCCC\C=C/CCCCCCCCCC(=O)OC(COC(=O)CCCCCCCC\C=C/C\C=C/C\C=C/C\C=C/CC)COC(=O)CCCCCCCC\C=C/C=C\CCCCC
InChI: InChI=1S/C65H112O6/c1-4-7-10-13-16-19-22-25-28-30-32-34-37-40-43-46-49-52-55-58-64(67)70-61-62(60-69-63(66)57-54-51-48-45-42-39-36-27-24-21-18-15-12-9-6-3)71-65(68)59-56-53-50-47-44-41-38-35-33-31-29-26-23-20-17-14-11-8-5-2/h7,10,16,18-19,21,24-25,27-28,31-34,62H,4-6,8-9,11-15,17,20,22-23,26,29-30,35-61H2,1-3H3/b10-7-,19-16-,21-18-,27-24-,28-25-,33-31-,34-32-
Instrument: AB Sciex TripleTOF 5600+ system (Q-TOF) equipped with a DuoSpray ion source
Instrument type: LC-ESI-QTOF
Ms type: MS2
Ion mode: POSITIVE
Collision energy: 45V
Column name: Acquity UPLC Peptide BEH C18 column (50*2.1 mm; 1.7 um; 130A)(Waters Co.,Milford, MA, USA)
Retention time: 15.24082
Precursor type: [M+NH4]+
Precursor m/z: 1006.884
Intensity: 104
m/z	relative intensity
185.131	39
187.0	31
203.183	48
205.19	33
226.989	28
268.99	70
269.005	106
287.229	33
297.263	19
313.251	26
315.259	55
315.282	48
321.321	33
351.013	31
367.326	37
384.985	19
433.003	126
515.008	155
597.026	28
603.55	55
623.492	33
625.515	39
631.565	99
631.601	48
651.527	228
651.555	90
653.554	68
657.576	292
657.612	73
659.578	37
659.614	73
677.538	26
679.571	110
681.581	53
683.586	17
685.596	77
685.615	70
685.635	75
707.584	48
707.631	55
709.606	155
709.65	46
760.973	22
924.82	26
935.739	68
935.781	598
935.815	999
935.841	266
935.853	130
936.81	28
989.831	66
989.857	82
989.908	31
1006.747	28
1006.834	39
1006.866	228
1006.897	261
1006.949	59
