Mass spectrum: TG 60:13; LC-ESI-QTOF; MS2
Name: TG 60:13
Class:  TAG
Formula: C63H96O6
Exact mass: 949.455
SMILES: CCCCC\C=C/C=C\CCCCCCCCC(=O)OCC(COC(=O)CC\C=C/C\C=C/C\C=C/C\C=C/C\C=C/C\C=C/CC)OC(=O)CCC\C=C/C\C=C/C\C=C/C\C=C/C\C=C/CC
InChI: InChI=1S/C63H96O6/c1-4-7-10-13-16-19-22-25-28-30-31-33-35-38-41-44-47-50-53-56-62(65)68-59-60(58-67-61(64)55-52-49-46-43-40-37-34-27-24-21-18-15-12-9-6-3)69-63(66)57-54-51-48-45-42-39-36-32-29-26-23-20-17-14-11-8-5-2/h7-8,10-11,16-21,24-29,31,33,36,38-39,41,45,47-48,50,60H,4-6,9,12-15,22-23,30,32,34-35,37,40,42-44,46,49,51-59H2,1-3H3/b10-7-,11-8-,19-16-,20-17-,21-18-,27-24-,28-25-,29-26-,33-31-,39-36-,41-38-,48-45-,50-47-
Instrument: AB Sciex TripleTOF 5600+ system (Q-TOF) equipped with a DuoSpray ion source
Instrument type: LC-ESI-QTOF
Ms type: MS2
Ion mode: POSITIVE
Collision energy: 45V
Column name: Acquity UPLC Peptide BEH C18 column (50*2.1 mm; 1.7 um; 130A)(Waters Co.,Milford, MA, USA)
Retention time: 13.76621
Precursor type: [M+NH4]+
Precursor m/z: 966.7494
Intensity: 10611
m/z	relative intensity
79.053	20
81.069	28
91.054	24
93.069	18
95.085	28
105.068	12
107.083	14
109.1	15
117.069	14
119.087	17
121.101	23
123.116	10
129.07	10
131.086	23
133.101	18
135.116	15
143.084	10
145.101	18
147.116	11
149.131	7
155.083	7
157.1	10
159.116	23
161.133	20
163.146	8
169.101	14
171.116	24
173.133	25
175.148	14
181.099	7
183.115	17
185.131	20
187.147	17
189.165	7
197.131	15
199.147	20
201.163	45
203.181	8
209.13	11
211.148	21
213.158	11
213.17	10
215.179	8
223.15	10
225.17	10
227.141	7
227.18	15
237.22	16
239.18	9
251.176	10
263.239	15
265.192	7
267.212	38
269.223	8
283.2	5
283.242	8
285.212	3
285.223	17
291.208	7
293.224	38
295.239	3
301.212	4
309.225	7
311.235	60
311.259	44
319.256	5
335.266	5
337.272	120
351.22	8
351.237	6
359.267	4
365.275	5
367.265	6
383.259	3
385.271	23
385.288	10
391.279	7
511.377	2
529.44	2
547.458	3
595.447	2
597.485	22
597.518	9
601.511	2
603.546	3
605.51	2
617.468	2
619.453	41
619.479	23
619.552	3
621.486	999
621.562	3
622.475	7
622.504	5
623.491	7
623.521	6
639.495	2
645.452	4
645.473	13
645.495	11
645.512	4
647.5	358
648.494	4
648.532	3
649.508	5
665.503	3
667.454	33
667.475	16
667.5	6
667.526	4
669.44	6
669.482	136
669.511	17
671.494	2
695.465	5
695.488	27
695.509	47
696.508	1
783.655	2
813.605	1
825.628	1
839.643	1
847.664	1
848.693	1
867.646	1
884.681	8
898.706	3
907.69	2
931.703	4
931.759	2
944.732	2
946.795	1
947.708	593
947.796	5
948.706	3
948.752	3
949.715	52
949.741	27
949.782	3
963.716	2
966.678	5
966.729	123
966.756	278
967.747	4
967.775	3
