Mass spectrum: TG 54:5; LC-ESI-QTOF; MS2
Name: TG 54:5
Class:  TAG
Formula: C57H100O6
Exact mass: 881.4209999999999
SMILES: CCCCCC\C=C/CCCCCCCCCC(=O)OCC(COC(=O)CCCCCCCC\C=C/C=C\CCCCC)OC(=O)CCCCCCCC\C=C/C=C\CCCCC
InChI: InChI=1S/C57H100O6/c1-4-7-10-13-16-19-22-25-28-31-34-37-40-43-46-49-55(58)61-52-54(63-57(60)51-48-45-42-39-36-33-30-27-24-21-18-15-12-9-6-3)53-62-56(59)50-47-44-41-38-35-32-29-26-23-20-17-14-11-8-5-2/h16,18-25,27,54H,4-15,17,26,28-53H2,1-3H3/b19-16-,21-18-,23-20-,25-22-,27-24-
Instrument: AB Sciex TripleTOF 5600+ system (Q-TOF) equipped with a DuoSpray ion source
Instrument type: LC-ESI-QTOF
Ms type: MS2
Ion mode: POSITIVE
Collision energy: 45V
Column name: Acquity UPLC Peptide BEH C18 column (50*2.1 mm; 1.7 um; 130A)(Waters Co.,Milford, MA, USA)
Retention time: 14.30647
Precursor type: [M+NH4]+
Precursor m/z: 898.7819
Intensity: 12321
m/z	relative intensity
71.085	0
77.038	0
79.054	3
81.069	20
83.084	7
85.064	0
85.101	1
91.054	3
93.069	7
95.085	21
97.062	1
97.1	4
99.078	1
105.068	2
107.083	5
109.1	12
111.08	1
111.116	3
113.094	1
119.085	3
121.101	11
123.116	10
125.13	0
127.112	1
131.084	1
133.1	4
135.116	8
137.131	4
139.11	1
145.099	0
147.115	3
149.131	4
151.146	2
153.125	1
155.141	0
159.118	2
161.132	7
163.148	9
165.162	3
167.143	1
173.131	2
175.148	7
177.163	5
179.139	1
179.175	0
179.186	0
181.159	1
187.148	1
189.162	4
191.179	2
193.158	1
199.147	0
201.163	1
203.179	1
207.174	1
215.182	0
217.198	0
219.213	1
233.225	0
235.164	0
237.225	1
239.235	1
243.208	5
245.226	14
247.241	10
249.182	0
261.221	17
263.238	50
264.239	0
265.252	32
271.233	1
271.245	1
275.238	0
279.223	0
287.243	0
289.253	6
299.239	0
301.249	1
303.269	0
311.254	1
313.274	2
317.245	6
319.261	11
321.281	2
331.267	0
335.248	0
335.259	1
337.273	24
338.267	0
339.289	26
341.306	0
345.276	1
359.332	0
363.259	0
363.295	0
377.272	0
387.363	0
391.284	0
393.299	0
401.376	0
429.383	0
463.383	0
475.38	0
477.393	0
487.373	0
489.389	0
491.39	0
501.381	0
503.428	0
507.45	1
507.471	0
509.455	0
515.408	0
517.413	0
525.454	3
525.474	4
527.464	0
527.489	2
527.51	0
529.418	0
531.427	0
536.481	0
543.461	1
543.479	4
543.493	1
545.494	1
545.522	0
547.474	0
550.49	0
551.491	1
559.46	0
561.481	1
562.494	0
571.459	0
571.482	0
573.488	9
573.524	1
575.503	49
576.488	0
576.502	1
576.525	1
577.509	3
577.526	0
578.529	1
579.533	1
581.491	0
583.5	0
585.485	0
587.499	1
589.519	0
597.493	1
597.628	1
597.646	1
599.502	690
600.502	24
600.559	0
601.427	0
601.517	999
602.491	4
602.526	32
603.533	83
604.54	1
604.571	0
613.513	1
615.49	0
615.521	1
615.54	1
617.495	1
617.515	2
617.532	1
619.522	1
623.513	0
624.501	0
625.497	8
625.523	24
625.575	0
626.515	1
627.531	33
627.585	0
628.533	0
629.532	0
641.565	0
655.565	0
659.535	0
671.528	0
673.545	0
673.614	0
685.537	0
685.581	0
687.567	0
699.595	0
701.556	0
711.635	0
713.565	0
725.636	0
729.59	0
741.612	0
743.635	0
751.658	0
755.606	0
755.634	0
755.664	0
757.635	0
765.647	0
769.608	0
769.646	1
769.703	0
771.655	0
783.625	0
783.646	0
783.686	1
783.724	0
797.654	0
797.688	0
811.696	0
863.734	10
863.755	5
863.772	3
863.788	3
864.758	0
877.696	0
878.734	0
879.018	0
881.761	139
881.877	0
882.733	1
882.761	4
882.805	1
895.958	0
898.509	0
898.665	0
898.784	164
898.877	0
899.789	9
899.833	1
