Mass spectrum: TG 54:1; LC-ESI-QTOF; MS2
Name: TG 54:1
Class:  TAG
Formula: C57H108O6
Exact mass: 889.485
SMILES: CCCCCCCCCCCCCCCCCC(=O)OC(COC(=O)CCCCCCCCCCCCCCC)COC(=O)CCCCCCCCC\C=C/CCCCCCCC
InChI: InChI=1S/C57H108O6/c1-4-7-10-13-16-19-22-25-27-28-30-32-35-38-41-44-47-50-56(59)62-53-54(52-61-55(58)49-46-43-40-37-34-31-24-21-18-15-12-9-6-3)63-57(60)51-48-45-42-39-36-33-29-26-23-20-17-14-11-8-5-2/h25,27,54H,4-24,26,28-53H2,1-3H3/b27-25-
Instrument: AB Sciex TripleTOF 5600+ system (Q-TOF) equipped with a DuoSpray ion source
Instrument type: LC-ESI-QTOF
Ms type: MS2
Ion mode: POSITIVE
Collision energy: 45V
Column name: Acquity UPLC Peptide BEH C18 column (50*2.1 mm; 1.7 um; 130A)(Waters Co.,Milford, MA, USA)
Retention time: 15.5909
Precursor type: [M+NH4]+
Precursor m/z: 906.8474
Intensity: 4650
m/z	relative intensity
71.085	4
81.07	12
83.084	6
85.1	7
95.086	12
97.1	6
109.097	4
111.116	2
121.098	3
123.116	3
135.116	1
137.131	2
149.13	1
151.15	2
165.163	2
179.18	2
239.231	2
239.245	2
247.237	6
249.258	3
265.252	17
267.249	1
267.267	17
284.297	1
292.966	0
293.284	1
295.298	1
313.277	1
321.278	1
323.292	0
339.287	3
341.3	8
341.32	1
367.302	0
369.345	0
549.48	4
551.494	6
551.512	5
561.555	2
577.516	90
577.567	1
579.513	13
579.536	65
580.536	1
603.655	2
605.313	1
605.548	999
605.622	1
606.547	13
606.577	2
607.564	368
608.561	4
608.588	1
633.58	171
633.637	2
634.58	3
635.599	4
661.597	1
889.805	2
889.855	1
904.028	0
906.695	0
906.759	2
906.788	2
906.824	31
906.853	53
906.911	1
907.808	0
907.86	2
