Mass spectrum: TG 58:8; LC-ESI-QTOF; MS2
Name: TG 58:8
Class:  TAG
Formula: C61H102O6
Exact mass: 931.481
SMILES: CCCCCC\C=C/CCCCCCCCCC(=O)OCC(COC(=O)CC\C=C/C\C=C/C\C=C/C\C=C/C\C=C/C\C=C/CC)OC(=O)CCCCCCCCC\C=C/CCCCCC
InChI: InChI=1S/C61H102O6/c1-4-7-10-13-16-19-22-25-28-29-30-31-34-36-39-42-45-48-51-54-60(63)66-57-58(67-61(64)55-52-49-46-43-40-37-33-27-24-21-18-15-12-9-6-3)56-65-59(62)53-50-47-44-41-38-35-32-26-23-20-17-14-11-8-5-2/h7,10,16,19-21,23-25,28,30-31,36,39,45,48,58H,4-6,8-9,11-15,17-18,22,26-27,29,32-35,37-38,40-44,46-47,49-57H2,1-3H3/b10-7-,19-16-,23-20-,24-21-,28-25-,31-30-,39-36-,48-45-
Instrument: AB Sciex TripleTOF 5600+ system (Q-TOF) equipped with a DuoSpray ion source
Instrument type: LC-ESI-QTOF
Ms type: MS2
Ion mode: POSITIVE
Collision energy: 45V
Column name: Acquity UPLC Peptide BEH C18 column (50*2.1 mm; 1.7 um; 130A)(Waters Co.,Milford, MA, USA)
Retention time: 14.44069
Precursor type: [M+NH4]+
Precursor m/z: 948.7971
Intensity: 4790
m/z	relative intensity
81.069	18
83.086	14
91.054	6
93.068	7
95.084	15
95.091	6
97.103	9
109.101	10
119.089	6
121.102	17
123.115	7
131.083	7
135.117	8
149.134	7
159.119	7
161.133	6
169.105	8
171.119	11
173.132	10
175.147	6
181.102	8
183.118	8
185.129	8
199.146	6
201.162	13
211.15	8
213.163	8
215.175	6
223.143	6
225.164	7
227.177	14
237.163	7
247.244	17
251.178	6
263.232	6
265.252	43
269.233	7
283.241	4
291.211	3
292.957	8
293.22	19
293.231	14
295.246	4
311.236	64
313.266	6
319.267	3
321.278	3
337.266	3
337.284	3
339.27	5
339.275	12
339.287	37
339.298	25
341.296	4
367.268	6
385.268	3
393.298	7
456.967	5
557.461	3
575.479	9
575.506	12
577.534	3
578.523	6
601.497	6
601.525	6
601.646	4
602.547	3
603.533	999
604.524	12
604.556	13
623.499	8
625.515	3
627.529	3
629.556	3
647.491	7
647.517	14
649.514	324
650.5	3
650.539	7
651.508	7
651.537	14
667.519	3
675.527	9
675.554	4
702.975	3
724.952	1
807.639	1
855.762	2
856.74	8
865.694	2
866.69	14
866.728	31
866.748	12
866.771	5
866.785	3
913.747	7
913.782	4
931.757	34
931.777	12
931.792	18
948.699	3
948.793	230
948.832	30
948.84	21
948.876	6
949.782	10
949.836	2
