Mass spectrum: TG 58:2; LC-ESI-QTOF; MS2
Name: TG 58:2
Class:  TAG
Formula: C61H114O6
Exact mass: 943.577
SMILES: CCCCCCCCCCCCCCCCCC(=O)OCC(COC(=O)CCCCCCCCC\C=C/CCCCCCCCCC)OC(=O)CCCCCCCCC\C=C/CCCCCC
InChI: InChI=1S/C61H114O6/c1-4-7-10-13-16-19-22-25-28-29-30-31-34-36-39-42-45-48-51-54-60(63)66-57-58(67-61(64)55-52-49-46-43-40-37-33-27-24-21-18-15-12-9-6-3)56-65-59(62)53-50-47-44-41-38-35-32-26-23-20-17-14-11-8-5-2/h21,24,29-30,58H,4-20,22-23,25-28,31-57H2,1-3H3/b24-21-,30-29-
Instrument: AB Sciex TripleTOF 5600+ system (Q-TOF) equipped with a DuoSpray ion source
Instrument type: LC-ESI-QTOF
Ms type: MS2
Ion mode: POSITIVE
Collision energy: 45V
Column name: Acquity UPLC Peptide BEH C18 column (50*2.1 mm; 1.7 um; 130A)(Waters Co.,Milford, MA, USA)
Retention time: 16.13388
Precursor type: [M+NH4]+
Precursor m/z: 960.8831
Intensity: 471
m/z	relative intensity
81.07	45
97.102	31
109.102	31
151.147	31
247.227	31
265.254	116
265.263	63
292.966	21
293.283	45
295.305	31
323.313	21
339.276	21
397.364	31
575.483	84
575.515	323
577.49	85
577.521	193
577.546	85
603.505	247
603.532	438
603.546	204
603.563	416
605.538	128
605.57	225
631.544	149
631.572	302
631.595	172
633.56	149
633.585	192
633.602	74
633.619	128
659.579	86
659.596	334
659.621	181
661.583	508
661.606	818
661.62	999
661.635	856
661.65	529
663.642	224
663.667	87
687.589	116
687.608	170
687.625	129
687.642	139
687.658	96
687.676	95
689.65	106
689.69	36
943.801	48
943.871	31
960.638	34
960.83	31
960.854	152
960.877	247
960.913	215
960.94	161
960.958	64
