Mass spectrum: TG 46:2; LC-ESI-QTOF; MS2
Name: TG 46:2
Class:  TAG
Formula: C49H90O6
Exact mass: 775.253
SMILES: CCCCCCCCCCCCCCCC(=O)OC(COC(=O)CCCCCCCCCCC)COC(=O)CCCCCCCC\C=C/C=C\CCCCC
InChI: InChI=1S/C49H90O6/c1-4-7-10-13-16-19-21-23-24-26-27-30-33-36-39-42-48(51)54-45-46(44-53-47(50)41-38-35-32-29-18-15-12-9-6-3)55-49(52)43-40-37-34-31-28-25-22-20-17-14-11-8-5-2/h16,19,21,23,46H,4-15,17-18,20,22,24-45H2,1-3H3/b19-16-,23-21-
Instrument: AB Sciex TripleTOF 5600+ system (Q-TOF) equipped with a DuoSpray ion source
Instrument type: LC-ESI-QTOF
Ms type: MS2
Ion mode: POSITIVE
Collision energy: 45V
Column name: Acquity UPLC Peptide BEH C18 column (50*2.1 mm; 1.7 um; 130A)(Waters Co.,Milford, MA, USA)
Retention time: 13.88823
Precursor type: [M+NH4]+
Precursor m/z: 792.7066
Intensity: 13710
m/z	relative intensity
71.085	18
79.054	13
81.069	62
83.084	34
85.097	7
85.103	21
93.069	11
95.085	74
97.101	20
107.083	7
109.099	39
111.08	8
121.1	22
123.116	28
133.102	10
135.117	26
137.128	11
149.132	14
161.131	9
163.146	11
175.146	13
177.164	7
183.174	27
209.19	13
211.206	41
219.207	16
237.22	26
239.233	24
239.248	8
245.223	17
257.21	8
263.232	50
263.244	17
265.252	19
283.22	2
285.24	20
293.251	1
297.264	1
311.249	6
313.261	9
313.277	13
319.263	13
335.251	4
337.271	8
339.282	4
465.404	8
491.405	17
491.425	9
493.422	260
493.443	50
495.439	800
517.814	5
519.438	766
519.485	8
521.454	716
545.8	4
547.469	999
547.523	5
549.461	20
549.483	133
549.507	39
573.714	4
575.501	640
577.495	4
577.521	21
603.518	28
603.536	62
631.569	4
757.637	5
775.641	2
775.701	5
792.666	14
792.698	64
792.735	21
