Mass spectrum: TG 52:7; LC-ESI-QTOF; MS2
Name: TG 52:7
Class:  TAG
Formula: C55H92O6
Exact mass: 849.3349999999999
SMILES: CCCCC\C=C/C=C\CCCCCCCCC(=O)OCC(COC(=O)CCCCCCC\C=C/C=C\C=C/CC)OC(=O)CCCCCCCC\C=C/C=C\CCCCC
InChI: InChI=1S/C55H92O6/c1-4-7-10-13-16-19-22-25-27-30-33-36-39-42-45-48-54(57)60-51-52(50-59-53(56)47-44-41-38-35-32-29-24-21-18-15-12-9-6-3)61-55(58)49-46-43-40-37-34-31-28-26-23-20-17-14-11-8-5-2/h9,12,15-26,52H,4-8,10-11,13-14,27-51H2,1-3H3/b12-9-,18-15-,19-16-,20-17-,24-21-,25-22-,26-23-
Instrument: AB Sciex TripleTOF 5600+ system (Q-TOF) equipped with a DuoSpray ion source
Instrument type: LC-ESI-QTOF
Ms type: MS2
Ion mode: POSITIVE
Collision energy: 45V
Column name: Acquity UPLC Peptide BEH C18 column (50*2.1 mm; 1.7 um; 130A)(Waters Co.,Milford, MA, USA)
Retention time: 13.77726
Precursor type: [M+NH4]+
Precursor m/z: 866.7214
Intensity: 3151
m/z	relative intensity
81.069	27
93.067	22
95.086	42
107.084	15
109.1	24
117.069	15
121.102	26
131.085	24
145.1	16
159.116	27
161.129	15
169.102	15
171.117	15
173.13	20
175.15	30
183.117	17
185.134	21
187.146	15
197.132	18
201.162	48
211.204	20
213.167	17
225.157	18
237.22	21
257.208	14
263.235	25
267.21	92
283.231	4
285.217	59
285.237	104
292.959	7
309.235	4
311.253	45
311.269	16
313.267	7
319.269	8
337.261	27
337.276	62
339.253	6
339.286	14
341.247	10
374.964	4
391.288	10
456.963	5
545.459	19
545.482	16
545.757	9
547.47	999
547.491	223
549.488	14
551.501	15
565.474	8
567.429	25
567.461	10
569.433	27
569.455	141
569.481	18
571.459	16
573.498	14
575.509	10
577.528	8
593.439	18
593.471	16
593.519	31
595.476	69
599.498	34
601.49	11
601.512	50
601.534	24
621.458	28
621.474	65
621.493	98
621.514	30
623.488	12
784.65	14
788.595	8
806.601	11
831.671	16
847.505	2
847.638	81
847.681	595
847.75	12
849.649	9
849.692	62
849.727	15
866.632	7
866.682	35
866.715	148
866.746	62
