Mass spectrum: DG 22:2; LC-ESI-QTOF; MS2
Name: DG 22:2
Class:  DAG
Formula: C25H44O5
Exact mass: 424.62199999999996
SMILES: CCCCC\C=C/C\C=C/CCCCCCCC(=O)OC(CO)COC(=O)CCC
InChI: InChI=1S/C25H44O5/c1-3-5-6-7-8-9-10-11-12-13-14-15-16-17-18-20-25(28)30-23(21-26)22-29-24(27)19-4-2/h8-9,11-12,23,26H,3-7,10,13-22H2,1-2H3/b9-8-,12-11-
Instrument: AB Sciex TripleTOF 5600+ system (Q-TOF) equipped with a DuoSpray ion source
Instrument type: LC-ESI-QTOF
Ms type: MS2
Ion mode: POSITIVE
Collision energy: 45V
Column name: Acquity UPLC Peptide BEH C18 column (50*2.1 mm; 1.7 um; 130A)(Waters Co.,Milford, MA, USA)
Retention time: 7.28897
Precursor type: [M+NH4]+
Precursor m/z: 442.3513
Intensity: 2007
m/z	relative intensity
71.047	208
79.053	102
81.068	419
83.083	102
89.061	128
95.084	287
107.083	102
109.101	136
119.083	128
121.098	102
145.085	999
263.235	259
337.27	470
337.291	102
407.306	578
407.322	339
407.331	156
407.344	128
