Mass spectrum: PG 36:2; LC-ESI-QTOF; MS2
Name: PG 36:2
Class:  PG
Formula: C42H79O10P
Exact mass: 775.0600000000001
SMILES: CCCCCCCCCCCCCCCCCC(=O)OCC(COP(O)(=O)OCC(O)CO)OC(=O)CCCCCCC\C=C/C\C=C/CCCCC
InChI: InChI=1S/C42H79O10P/c1-3-5-7-9-11-13-15-17-19-21-23-25-27-29-31-33-41(45)49-37-40(38-51-53(47,48)50-36-39(44)35-43)52-42(46)34-32-30-28-26-24-22-20-18-16-14-12-10-8-6-4-2/h12,14,18,20,39-40,43-44H,3-11,13,15-17,19,21-38H2,1-2H3,(H,47,48)/b14-12-,20-18-
Instrument: AB Sciex TripleTOF 5600+ system (Q-TOF) equipped with a DuoSpray ion source
Instrument type: LC-ESI-QTOF
Ms type: MS2
Ion mode: POSITIVE
Collision energy: 45V
Column name: Acquity UPLC Peptide BEH C18 column (50*2.1 mm; 1.7 um; 130A)(Waters Co.,Milford, MA, USA)
Retention time: 8.791569
Precursor type: [M+NH4]+
Precursor m/z: 792.5732
Intensity: 1840
m/z	relative intensity
109.103	9
125.001	8
184.072	999
263.24	11
265.26	8
267.261	8
337.266	22
341.307	11
370.357	19
371.361	3
437.196	8
455.216	8
459.23	5
476.329	8
526.331	11
543.506	5
573.499	8
575.494	22
591.534	22
596.477	19
597.464	34
597.499	39
601.656	8
603.505	60
603.538	564
607.564	34
651.539	17
705.484	5
721.46	37
734.578	8
753.527	8
756.546	14
756.61	8
769.498	6
778.53	6
780.503	17
780.555	325
780.607	20
792.488	22
792.536	57
792.552	28
792.576	51
