Mass spectrum: TG 47:3; LC-ESI-QTOF; MS2
Name: TG 47:3
Class:  TAG
Formula: C50H90O6
Exact mass: 787.264
SMILES: CCCCCCCCCCCC(=O)OCC(COC(=O)CCCCCCCC\C=C/C=C\CCCCC)OC(=O)CCCCC\C=C/CCCCCCCCC
InChI: InChI=1S/C50H90O6/c1-4-7-10-13-16-19-21-23-25-27-28-31-34-37-40-43-49(52)55-46-47(45-54-48(51)42-39-36-33-30-18-15-12-9-6-3)56-50(53)44-41-38-35-32-29-26-24-22-20-17-14-11-8-5-2/h16,19,21,23,26,29,47H,4-15,17-18,20,22,24-25,27-28,30-46H2,1-3H3/b19-16-,23-21-,29-26-
Instrument: AB Sciex TripleTOF 5600+ system (Q-TOF) equipped with a DuoSpray ion source
Instrument type: LC-ESI-QTOF
Ms type: MS2
Ion mode: POSITIVE
Collision energy: 45V
Column name: Acquity UPLC Peptide BEH C18 column (50*2.1 mm; 1.7 um; 130A)(Waters Co.,Milford, MA, USA)
Retention time: 13.77884
Precursor type: [M+NH4]+
Precursor m/z: 804.7051
Intensity: 192
m/z	relative intensity
95.09	133
97.104	133
109.098	267
123.122	133
203.181	267
221.182	223
226.991	361
269.0	535
308.974	89
311.25	312
311.27	316
313.276	361
339.308	89
391.006	312
473.008	312
505.417	312
505.454	191
507.422	357
507.445	633
519.441	535
521.45	325
531.435	491
531.471	223
533.462	714
547.466	584
549.46	361
549.485	999
549.506	544
549.523	316
559.469	325
561.468	370
573.496	357
575.491	178
587.499	401
601.518	308
745.62	89
771.646	89
787.707	102
804.724	330
