Mass spectrum: TG 62:15; LC-ESI-QTOF; MS2
Name: TG 62:15
Class:  TAG
Formula: C65H96O6
Exact mass: 973.477
SMILES: CC\C=C/C\C=C/C\C=C/C\C=C/C\C=C/C\C=C/CCC(=O)OCC(COC(=O)CCCCCCCCC\C=C/C=C\C=C/CC)OC(=O)CC\C=C/C\C=C/C\C=C/C\C=C/C\C=C/C\C=C/CC
InChI: InChI=1S/C65H96O6/c1-4-7-10-13-16-19-22-25-28-30-32-34-37-40-43-46-49-52-55-58-64(67)70-61-62(60-69-63(66)57-54-51-48-45-42-39-36-27-24-21-18-15-12-9-6-3)71-65(68)59-56-53-50-47-44-41-38-35-33-31-29-26-23-20-17-14-11-8-5-2/h7-12,15-21,24-26,28-29,32-35,40-41,43-44,49-50,52-53,62H,4-6,13-14,22-23,27,30-31,36-39,42,45-48,51,54-61H2,1-3H3/b10-7-,11-8-,12-9-,18-15-,19-16-,20-17-,24-21-,28-25-,29-26-,34-32-,35-33-,43-40-,44-41-,52-49-,53-50-
Instrument: AB Sciex TripleTOF 5600+ system (Q-TOF) equipped with a DuoSpray ion source
Instrument type: LC-ESI-QTOF
Ms type: MS2
Ion mode: POSITIVE
Collision energy: 45V
Column name: Acquity UPLC Peptide BEH C18 column (50*2.1 mm; 1.7 um; 130A)(Waters Co.,Milford, MA, USA)
Retention time: 13.68191
Precursor type: [M+NH4]+
Precursor m/z: 990.753
Intensity: 4578
m/z	relative intensity
79.054	18
81.069	9
91.053	24
93.069	16
95.085	16
105.069	12
107.087	11
109.097	8
117.07	12
119.086	18
121.102	14
129.074	7
131.086	17
133.1	16
135.117	9
141.069	6
145.101	11
147.116	12
149.132	9
157.103	12
159.118	14
161.133	16
169.102	14
171.112	9
171.121	9
173.132	19
175.147	13
183.116	18
185.133	18
187.151	11
195.118	7
197.135	10
199.144	10
201.129	7
201.164	22
209.133	11
211.147	14
213.164	13
223.151	12
225.166	10
227.182	15
237.162	10
243.213	6
261.221	17
265.198	7
267.205	9
269.226	11
279.228	3
281.224	2
283.2	3
283.244	5
291.214	5
293.229	37
295.24	4
297.243	2
305.221	2
309.228	7
311.22	5
311.241	49
313.258	2
317.248	11
319.213	6
327.233	2
333.252	4
335.232	3
335.259	56
337.27	4
345.243	3
352.234	2
367.265	6
383.247	2
385.264	9
385.278	13
389.266	5
389.28	3
483.347	4
571.467	5
572.486	4
577.512	3
589.451	2
593.451	3
594.469	5
597.475	3
598.486	5
603.515	5
603.556	3
604.555	3
605.531	4
605.553	5
619.462	4
619.489	4
620.475	12
621.517	2
629.557	2
639.474	7
640.471	1
640.5	5
640.524	3
641.466	3
642.464	3
643.454	5
643.483	6
644.459	5
644.49	8
645.487	999
646.478	12
646.505	6
647.501	16
647.53	5
668.47	7
670.492	3
671.488	3
677.475	1
693.479	2
695.451	3
695.477	17
695.504	118
695.555	4
711.505	2
795.646	3
809.603	1
839.626	1
863.625	2
908.677	3
917.684	2
921.728	2
922.675	35
922.706	210
922.746	98
922.774	23
922.797	14
923.688	5
923.759	2
955.702	5
973.705	27
973.742	17
973.811	2
974.722	2
987.648	2
990.727	110
990.76	239
990.832	5
991.722	3
991.772	5
