Mass spectrum: TG 56:4; LC-ESI-QTOF; MS2
Name: TG 56:4
Class:  TAG
Formula: C59H106O6
Exact mass: 911.491
SMILES: CCCCCCCC\C=C/CCCCCCCCCC(=O)OCC(COC(=O)CCCCCCCCC\C=C/CCCCCC)OC(=O)CCCCCCCC\C=C/C=C\CCCCC
InChI: InChI=1S/C59H106O6/c1-4-7-10-13-16-19-22-25-28-29-32-34-37-40-43-46-49-52-58(61)64-55-56(65-59(62)53-50-47-44-41-38-35-31-27-24-21-18-15-12-9-6-3)54-63-57(60)51-48-45-42-39-36-33-30-26-23-20-17-14-11-8-5-2/h18,20-21,23-25,27-28,56H,4-17,19,22,26,29-55H2,1-3H3/b21-18-,23-20-,27-24-,28-25-
Instrument: AB Sciex TripleTOF 5600+ system (Q-TOF) equipped with a DuoSpray ion source
Instrument type: LC-ESI-QTOF
Ms type: MS2
Ion mode: POSITIVE
Collision energy: 45V
Column name: Acquity UPLC Peptide BEH C18 column (50*2.1 mm; 1.7 um; 130A)(Waters Co.,Milford, MA, USA)
Retention time: 14.88686
Precursor type: [M+NH4]+
Precursor m/z: 928.835
Intensity: 12241
m/z	relative intensity
77.036	2
79.053	8
81.069	26
83.085	14
85.101	2
93.069	10
95.085	19
95.095	2
97.101	10
105.068	2
107.085	4
109.099	10
111.117	5
119.086	2
121.101	12
123.115	12
125.131	3
127.109	2
133.099	5
135.12	12
137.136	4
147.116	2
149.132	6
151.147	4
161.134	4
163.147	9
165.162	4
167.147	2
175.148	6
177.166	4
179.177	2
191.175	2
193.157	2
203.181	2
245.225	15
247.244	11
263.237	31
263.258	3
265.252	35
273.261	1
275.264	2
275.275	6
289.226	1
291.25	1
291.273	4
293.28	22
317.244	1
319.251	3
319.267	5
321.279	3
335.26	1
337.271	11
339.291	20
347.302	2
349.309	3
365.304	2
367.319	16
375.342	1
377.33	1
527.474	1
545.493	2
555.518	3
557.533	2
573.48	2
573.496	7
573.527	2
575.491	1
575.508	3
577.526	1
599.497	5
599.522	2
599.626	2
601.521	911
601.568	14
601.609	2
601.874	1
603.534	94
603.565	9
605.555	2
606.556	4
607.563	1
619.514	2
627.536	10
627.566	4
629.553	999
630.575	2
631.568	754
631.651	2
633.586	1
645.581	1
647.547	2
655.564	4
657.56	3
657.576	6
657.596	4
673.53	0
673.614	0
675.554	1
701.569	1
703.588	0
727.681	0
741.672	0
757.674	0
785.661	1
799.72	1
827.768	0
875.797	0
893.78	5
893.807	9
911.787	30
911.807	63
911.837	12
925.903	1
928.838	230
928.966	0
