Mass spectrum: TG 58:3; LC-ESI-QTOF; MS2
Name: TG 58:3
Class:  TAG
Formula: C61H112O6
Exact mass: 941.5609999999999
SMILES: CCCCCCCCCC\C=C/CCCCCCCCCC(=O)OCC(COC(=O)CCCCCCCCC\C=C/CCCCCC)OC(=O)CCCCCCCCC\C=C/CCCCCC
InChI: InChI=1S/C61H112O6/c1-4-7-10-13-16-19-22-25-28-29-30-31-34-36-39-42-45-48-51-54-60(63)66-57-58(67-61(64)55-52-49-46-43-40-37-33-27-24-21-18-15-12-9-6-3)56-65-59(62)53-50-47-44-41-38-35-32-26-23-20-17-14-11-8-5-2/h20-21,23-24,29-30,58H,4-19,22,25-28,31-57H2,1-3H3/b23-20-,24-21-,30-29-
Instrument: AB Sciex TripleTOF 5600+ system (Q-TOF) equipped with a DuoSpray ion source
Instrument type: LC-ESI-QTOF
Ms type: MS2
Ion mode: POSITIVE
Collision energy: 45V
Column name: Acquity UPLC Peptide BEH C18 column (50*2.1 mm; 1.7 um; 130A)(Waters Co.,Milford, MA, USA)
Retention time: 15.66433
Precursor type: [M+NH4]+
Precursor m/z: 958.8792
Intensity: 761
m/z	relative intensity
95.084	48
97.101	20
109.098	35
239.24	22
263.241	41
265.255	56
275.281	20
293.283	34
319.271	13
339.287	20
395.36	13
575.491	76
575.497	97
575.504	91
575.517	126
601.514	48
601.54	54
603.529	321
603.542	146
603.549	146
603.556	111
603.563	90
629.548	58
631.555	385
631.574	153
631.583	91
657.581	48
657.588	48
657.612	54
659.595	999
659.613	212
659.62	183
659.627	134
661.614	385
685.592	41
685.599	91
685.618	175
687.621	52
687.651	24
941.853	92
958.869	203
958.885	98
958.893	76
958.904	90
958.924	76
