Mass spectrum: TG 57:3; LC-ESI-QTOF; MS2
Name: TG 57:3
Class:  TAG
Formula: C60H110O6
Exact mass: 927.534
SMILES: CCCCCCCCCCCCCCCCCCC(=O)OC(COC(=O)CCCCCCCCC\C=C/CCCCCCCC)COC(=O)CCCCCCCC\C=C/C=C\CCCCC
InChI: InChI=1S/C60H110O6/c1-4-7-10-13-16-19-22-25-28-30-33-35-38-41-44-47-50-53-59(62)65-56-57(55-64-58(61)52-49-46-43-40-37-34-31-27-24-21-18-15-12-9-6-3)66-60(63)54-51-48-45-42-39-36-32-29-26-23-20-17-14-11-8-5-2/h18,21,24-25,27-28,57H,4-17,19-20,22-23,26,29-56H2,1-3H3/b21-18-,27-24-,28-25-
Instrument: AB Sciex TripleTOF 5600+ system (Q-TOF) equipped with a DuoSpray ion source
Instrument type: LC-ESI-QTOF
Ms type: MS2
Ion mode: POSITIVE
Collision energy: 45V
Column name: Acquity UPLC Peptide BEH C18 column (50*2.1 mm; 1.7 um; 130A)(Waters Co.,Milford, MA, USA)
Retention time: 15.43151
Precursor type: [M+NH4]+
Precursor m/z: 944.8622
Intensity: 531
m/z	relative intensity
83.087	40
95.09	30
97.104	33
177.165	40
245.224	50
263.236	50
291.309	20
313.274	20
335.329	40
337.273	20
353.31	20
355.321	20
367.323	20
383.372	20
390.998	20
395.346	20
575.515	246
601.51	278
601.527	514
601.545	197
603.514	71
603.545	329
615.535	70
617.533	92
617.555	184
617.581	91
619.584	70
629.562	205
631.533	103
631.562	143
631.594	81
643.571	142
645.586	885
647.558	103
647.577	237
647.605	999
671.593	173
671.617	154
673.617	93
756.88	20
762.842	20
927.836	93
944.773	63
944.817	122
944.854	350
944.888	174
944.918	81
945.891	30
