Mass spectrum: TG 56:9; LC-ESI-QTOF; MS2
Name: TG 56:9
Class:  TAG
Formula: C59H96O6
Exact mass: 901.4110000000001
SMILES: CCCCCCCCCCCCCCCC(=O)OCC(COC(=O)CC\C=C/C\C=C/C\C=C/C\C=C/C\C=C/C\C=C/CC)OC(=O)CCCCCCCCC\C=C/C=C\C=C/CC
InChI: InChI=1S/C59H96O6/c1-4-7-10-13-16-19-22-25-27-28-29-30-32-34-37-40-43-46-49-52-58(61)64-55-56(54-63-57(60)51-48-45-42-39-36-33-24-21-18-15-12-9-6-3)65-59(62)53-50-47-44-41-38-35-31-26-23-20-17-14-11-8-5-2/h7-8,10-11,14,16-17,19-20,23,25,27,29-30,34,37,43,46,56H,4-6,9,12-13,15,18,21-22,24,26,28,31-33,35-36,38-42,44-45,47-55H2,1-3H3/b10-7-,11-8-,17-14-,19-16-,23-20-,27-25-,30-29-,37-34-,46-43-
Instrument: AB Sciex TripleTOF 5600+ system (Q-TOF) equipped with a DuoSpray ion source
Instrument type: LC-ESI-QTOF
Ms type: MS2
Ion mode: POSITIVE
Collision energy: 45V
Column name: Acquity UPLC Peptide BEH C18 column (50*2.1 mm; 1.7 um; 130A)(Waters Co.,Milford, MA, USA)
Retention time: 13.87352
Precursor type: [M+NH4]+
Precursor m/z: 918.757
Intensity: 1826
m/z	relative intensity
81.07	55
93.069	41
95.082	70
109.101	70
121.102	39
133.1	39
147.116	43
159.12	45
161.129	54
169.098	39
173.132	47
175.148	54
185.134	37
201.161	96
201.175	47
211.149	50
263.243	79
267.212	83
285.214	103
287.238	15
293.234	23
301.245	18
311.256	15
313.268	15
319.262	39
321.225	18
335.259	39
337.271	207
337.286	95
339.295	63
359.248	15
573.492	319
575.509	25
597.496	56
597.628	18
598.482	24
599.492	999
599.509	963
617.519	31
619.477	39
621.481	294
621.5	350
623.509	87
647.504	70
777.624	15
836.677	25
883.727	54
901.706	102
901.741	87
918.548	39
918.668	35
918.715	88
918.741	215
918.767	151
918.795	79
