Mass spectrum: TG 48:4; LC-ESI-QTOF; MS2
Name: TG 48:4
Class:  TAG
Formula: C51H90O6
Exact mass: 799.275
SMILES: CCCCCCCCCCCCCC(=O)OCC(COC(=O)CCCCCCCCC\C=C/C=C\C=C/CC)OC(=O)CCCCC\C=C/CCCCCCCC
InChI: InChI=1S/C51H90O6/c1-4-7-10-13-16-19-22-24-25-27-29-32-35-38-41-44-50(53)56-47-48(46-55-49(52)43-40-37-34-31-28-21-18-15-12-9-6-3)57-51(54)45-42-39-36-33-30-26-23-20-17-14-11-8-5-2/h7,10,13,16,19,22,26,30,48H,4-6,8-9,11-12,14-15,17-18,20-21,23-25,27-29,31-47H2,1-3H3/b10-7-,16-13-,22-19-,30-26-
Instrument: AB Sciex TripleTOF 5600+ system (Q-TOF) equipped with a DuoSpray ion source
Instrument type: LC-ESI-QTOF
Ms type: MS2
Ion mode: POSITIVE
Collision energy: 45V
Column name: Acquity UPLC Peptide BEH C18 column (50*2.1 mm; 1.7 um; 130A)(Waters Co.,Milford, MA, USA)
Retention time: 13.72568
Precursor type: [M+NH4]+
Precursor m/z: 816.7029
Intensity: 256
m/z	relative intensity
186.989	165
261.22	220
268.997	220
311.257	182
337.273	165
345.976	110
433.04	110
517.421	165
519.431	386
519.464	447
521.445	618
521.464	784
536.953	110
543.431	441
545.446	441
545.474	331
547.456	331
547.489	331
549.492	110
571.474	999
573.49	447
575.485	337
575.524	276
599.502	337
601.528	110
610.939	110
781.669	110
799.685	331
816.485	127
816.582	165
816.722	497
