Mass spectrum: ChE 20:2; LC-ESI-QTOF; MS2
Name: ChE 20:2
Class:  CE
Formula: C47H80O2
Exact mass: 677.155
SMILES: CCCCC\C=C/C\C=C/CCCCCCCCCC(=O)O[C@H]1CC[C@]2(C)[C@H]3CC[C@]4(C)[C@H](CC[C@H]4[C@@H]3CC=C2C1)[C@H](C)CCCC(C)C
InChI: InChI=1S/C47H80O2/c1-7-8-9-10-11-12-13-14-15-16-17-18-19-20-21-22-23-27-45(48)49-40-32-34-46(5)39(36-40)28-29-41-43-31-30-42(38(4)26-24-25-37(2)3)47(43,6)35-33-44(41)46/h11-12,14-15,28,37-38,40-44H,7-10,13,16-27,29-36H2,1-6H3/b12-11-,15-14-/t38-,40+,41+,42-,43+,44+,46+,47-/m1/s1
Instrument: AB Sciex TripleTOF 5600+ system (Q-TOF) equipped with a DuoSpray ion source
Instrument type: LC-ESI-QTOF
Ms type: MS2
Ion mode: POSITIVE
Collision energy: 45V
Column name: Acquity UPLC Peptide BEH C18 column (50*2.1 mm; 1.7 um; 130A)(Waters Co.,Milford, MA, USA)
Retention time: 14.90843
Precursor type: [M+NH4]+
Precursor m/z: 694.6534
Intensity: 307
m/z	relative intensity
83.083	249
147.116	303
161.132	227
175.159	151
189.166	174
269.006	227
287.268	151
369.34	999
369.367	606
390.985	151
448.984	151
537.356	553
694.487	681
