Mass spectrum: BMP 42:8; LC-ESI-QTOF; MS2
Name: BMP 42:8
Class:  BMP
Formula: C48H79O10P
Exact mass: 847.1260000000001
SMILES: CC\C=C/C\C=C/C\C=C/C\C=C/CCCCCCCCC(=O)OC(CO)COP(O)(=O)OCC(CO)OC(=O)CCCCCC\C=C/C\C=C/C\C=C/C\C=C/CC
InChI: InChI=1S/C48H79O10P/c1-3-5-7-9-11-13-15-17-19-21-22-24-26-28-30-32-34-36-38-40-48(52)58-46(42-50)44-56-59(53,54)55-43-45(41-49)57-47(51)39-37-35-33-31-29-27-25-23-20-18-16-14-12-10-8-6-4-2/h5-8,11-14,17-20,22,24-25,27,45-46,49-50H,3-4,9-10,15-16,21,23,26,28-44H2,1-2H3,(H,53,54)/b7-5-,8-6-,13-11-,14-12-,19-17-,20-18-,24-22-,27-25-
Instrument: AB Sciex TripleTOF 5600+ system (Q-TOF) equipped with a DuoSpray ion source
Instrument type: LC-ESI-QTOF
Ms type: MS2
Ion mode: POSITIVE
Collision energy: 45V
Column name: Acquity UPLC Peptide BEH C18 column (50*2.1 mm; 1.7 um; 130A)(Waters Co.,Milford, MA, USA)
Retention time: 8.15101
Precursor type: [M+NH4]+
Precursor m/z: 864.5794
Intensity: 673
m/z	relative intensity
91.049	78
93.07	78
95.089	78
109.107	90
189.129	78
189.166	90
269.229	156
361.271	835
361.297	117
363.278	235
365.306	352
385.272	129
387.297	278
389.286	235
389.305	999
485.186	78
570.417	117
587.508	274
656.588	90
667.484	117
681.495	78
753.531	78
805.492	196
841.495	215
