Mass spectrum: TG 51:2; LC-ESI-QTOF; MS2
Name: TG 51:2
Class:  TAG
Formula: C54H100O6
Exact mass: 845.3879999999999
SMILES: CCCCCCCCCCCCCCCCC(=O)OC(COC(=O)CCCCCCCCCCCCCCC)COC(=O)CCCCCCCC\C=C/C=C\CCCCC
InChI: InChI=1S/C54H100O6/c1-4-7-10-13-16-19-22-25-27-30-32-35-38-41-44-47-53(56)59-50-51(49-58-52(55)46-43-40-37-34-31-28-24-21-18-15-12-9-6-3)60-54(57)48-45-42-39-36-33-29-26-23-20-17-14-11-8-5-2/h16,19,22,25,51H,4-15,17-18,20-21,23-24,26-50H2,1-3H3/b19-16-,25-22-
Instrument: AB Sciex TripleTOF 5600+ system (Q-TOF) equipped with a DuoSpray ion source
Instrument type: LC-ESI-QTOF
Ms type: MS2
Ion mode: POSITIVE
Collision energy: 45V
Column name: Acquity UPLC Peptide BEH C18 column (50*2.1 mm; 1.7 um; 130A)(Waters Co.,Milford, MA, USA)
Retention time: 14.62958
Precursor type: [M+NH4]+
Precursor m/z: 862.7813
Intensity: 2249
m/z	relative intensity
71.082	35
81.068	49
93.072	42
95.085	35
109.103	56
137.125	28
239.235	63
245.223	35
253.252	42
263.238	114
268.993	71
313.278	77
319.256	21
339.285	14
433.012	14
448.943	14
561.469	79
561.483	57
561.492	115
563.484	50
563.498	266
563.514	100
563.524	50
565.512	862
565.528	319
565.535	203
565.549	100
565.555	93
575.476	72
575.483	195
575.502	999
575.521	189
577.515	151
577.526	50
577.533	86
577.543	57
589.499	218
589.51	797
589.523	365
589.531	379
589.54	197
589.547	110
590.52	58
591.523	57
603.53	238
603.544	64
617.555	99
845.742	14
862.716	66
862.754	200
862.786	50
862.794	64
862.802	50
862.823	28
862.836	28
862.848	21
863.701	35
