Mass spectrum: TG 48:3; LC-ESI-QTOF; MS2
Name: TG 48:3
Class:  TAG
Formula: C51H92O6
Exact mass: 801.2909999999999
SMILES: CCCCCCCCCCCCCCCC(=O)OC(COC(=O)CCCCCCCCCCCCC)COC(=O)CCCCCCCCC\C=C/C=C\C=C/CC
InChI: InChI=1S/C51H92O6/c1-4-7-10-13-16-19-22-24-25-27-29-32-35-38-41-44-50(53)56-47-48(46-55-49(52)43-40-37-34-31-28-21-18-15-12-9-6-3)57-51(54)45-42-39-36-33-30-26-23-20-17-14-11-8-5-2/h7,10,13,16,19,22,48H,4-6,8-9,11-12,14-15,17-18,20-21,23-47H2,1-3H3/b10-7-,16-13-,22-19-
Instrument: AB Sciex TripleTOF 5600+ system (Q-TOF) equipped with a DuoSpray ion source
Instrument type: LC-ESI-QTOF
Ms type: MS2
Ion mode: POSITIVE
Collision energy: 45V
Column name: Acquity UPLC Peptide BEH C18 column (50*2.1 mm; 1.7 um; 130A)(Waters Co.,Milford, MA, USA)
Retention time: 13.92271
Precursor type: [M+NH4]+
Precursor m/z: 818.7225
Intensity: 1482
m/z	relative intensity
79.053	16
81.068	31
83.081	7
83.09	8
85.1	7
93.07	11
95.086	20
97.101	14
109.102	19
111.119	7
121.096	10
121.105	14
123.114	17
135.117	18
137.133	6
149.13	10
163.151	9
177.16	8
209.193	6
211.199	14
211.21	12
219.21	16
237.218	38
237.233	13
239.233	10
245.227	29
263.237	40
265.253	7
268.998	12
283.228	5
285.242	12
292.96	4
293.235	3
311.259	20
313.268	10
313.289	3
319.263	13
337.274	6
339.284	8
432.981	3
490.956	6
519.443	133
521.457	673
545.454	225
545.765	6
546.463	6
547.47	999
548.481	11
549.458	6
549.488	29
549.514	10
573.487	569
574.497	8
575.499	162
575.524	45
577.513	7
577.541	5
601.505	38
601.525	35
601.557	10
603.554	7
727.65	2
783.683	4
801.655	4
801.704	32
801.755	4
818.594	5
818.699	47
818.726	34
818.752	22
819.706	3
