Mass spectrum: TG 56:10; LC-ESI-QTOF; MS2
Name: TG 56:10
Class:  TAG
Formula: C59H94O6
Exact mass: 899.395
SMILES: CCCCC\C=C/C=C\CCCCCCCCC(=O)OCC(COC(=O)CCC\C=C/C\C=C/C\C=C/C\C=C/C\C=C/CC)OC(=O)CCCCCCCCC\C=C/C=C\C=C/CC
InChI: InChI=1S/C59H94O6/c1-4-7-10-13-16-19-22-25-28-29-32-34-37-40-43-46-49-52-58(61)64-55-56(65-59(62)53-50-47-44-41-38-35-31-27-24-21-18-15-12-9-6-3)54-63-57(60)51-48-45-42-39-36-33-30-26-23-20-17-14-11-8-5-2/h7,9-10,12,15-21,23-26,28,32,34,40,43,56H,4-6,8,11,13-14,22,27,29-31,33,35-39,41-42,44-55H2,1-3H3/b10-7-,12-9-,18-15-,19-16-,20-17-,24-21-,26-23-,28-25-,34-32-,43-40-
Instrument: AB Sciex TripleTOF 5600+ system (Q-TOF) equipped with a DuoSpray ion source
Instrument type: LC-ESI-QTOF
Ms type: MS2
Ion mode: POSITIVE
Collision energy: 45V
Column name: Acquity UPLC Peptide BEH C18 column (50*2.1 mm; 1.7 um; 130A)(Waters Co.,Milford, MA, USA)
Retention time: 13.73206
Precursor type: [M+NH4]+
Precursor m/z: 916.7371
Intensity: 1801
m/z	relative intensity
81.071	42
83.084	17
93.07	25
95.087	25
105.069	15
107.086	18
121.103	25
133.099	18
135.113	17
159.114	14
161.134	15
171.12	15
173.132	22
185.129	20
187.147	14
201.163	16
211.15	23
213.161	15
217.197	15
219.211	15
227.183	29
237.22	25
261.218	21
263.236	18
277.214	12
279.238	5
283.239	6
291.22	7
293.209	6
293.226	31
293.24	12
309.251	10
311.231	31
311.243	45
311.26	33
317.247	9
335.25	7
335.265	14
337.274	21
367.255	6
385.271	5
571.469	999
572.478	14
573.489	23
577.509	9
589.497	10
597.482	33
599.493	10
601.516	12
603.528	23
603.564	9
605.558	18
615.474	13
615.497	9
615.52	15
617.512	33
619.443	9
619.469	47
619.488	34
619.535	14
621.461	23
621.469	31
621.483	107
621.507	37
645.45	20
645.477	70
645.492	34
645.501	22
645.512	31
647.499	73
647.539	12
728.702	3
774.533	3
789.575	3
815.619	3
830.657	3
834.657	6
847.7	3
857.659	15
857.761	12
881.69	10
881.779	4
899.67	15
899.698	26
899.716	32
899.745	29
916.555	7
916.682	27
916.708	95
916.748	163
916.787	23
917.74	12
