Mass spectrum: TG 56:2; LC-ESI-QTOF; MS2
Name: TG 56:2
Class:  TAG
Formula: C59H110O6
Exact mass: 915.523
SMILES: CCCCCCCCCCCCCCCC(=O)OCC(COC(=O)CCCCCCCCC\C=C/CCCCCCCC)OC(=O)CCCCCCCCC\C=C/CCCCCCCC
InChI: InChI=1S/C59H110O6/c1-4-7-10-13-16-19-22-25-27-29-31-34-37-40-43-46-49-52-58(61)64-55-56(54-63-57(60)51-48-45-42-39-36-33-24-21-18-15-12-9-6-3)65-59(62)53-50-47-44-41-38-35-32-30-28-26-23-20-17-14-11-8-5-2/h25-28,56H,4-24,29-55H2,1-3H3/b27-25-,28-26-
Instrument: AB Sciex TripleTOF 5600+ system (Q-TOF) equipped with a DuoSpray ion source
Instrument type: LC-ESI-QTOF
Ms type: MS2
Ion mode: POSITIVE
Collision energy: 45V
Column name: Acquity UPLC Peptide BEH C18 column (50*2.1 mm; 1.7 um; 130A)(Waters Co.,Milford, MA, USA)
Retention time: 15.64891
Precursor type: [M+NH4]+
Precursor m/z: 932.8625
Intensity: 4053
m/z	relative intensity
71.09	3
81.07	10
83.085	5
85.099	3
93.071	3
95.085	15
97.101	7
107.085	3
109.102	8
111.117	4
121.101	4
123.117	7
135.117	4
149.131	7
151.147	3
163.149	5
165.162	3
193.199	3
239.224	3
239.242	6
247.238	12
249.256	4
263.237	3
265.252	66
267.274	13
275.271	4
277.295	2
293.282	17
295.301	2
303.301	3
313.269	3
321.271	2
321.316	7
339.285	11
341.304	10
349.321	2
349.992	2
367.308	5
369.33	5
377.336	3
395.35	3
397.381	1
549.486	18
551.503	8
575.494	15
575.526	6
577.518	308
578.521	4
579.537	20
603.526	201
603.551	70
603.657	4
605.548	955
606.556	5
607.565	174
607.589	22
607.62	4
629.586	3
631.565	511
631.627	5
633.578	999
634.584	9
635.577	10
635.6	22
635.617	7
659.577	80
659.598	159
659.622	39
661.593	8
661.61	15
661.632	8
673.627	1
687.607	1
687.666	2
761.008	1
768.935	1
897.803	3
906.752	1
906.805	3
906.841	8
906.897	6
915.83	11
915.857	6
929.916	1
932.732	2
932.831	44
932.862	113
932.892	47
933.896	2
