Mass spectrum: TG 50:4; LC-ESI-QTOF; MS2
Name: TG 50:4
Class:  TAG
Formula: C53H94O6
Exact mass: 827.329
SMILES: CCCCCCCCCCCCCC(=O)OCC(COC(=O)CCCCCCCC\C=C/C=C\CCCCC)OC(=O)CCCCCCCC\C=C/C=C\CCCCC
InChI: InChI=1S/C53H94O6/c1-4-7-10-13-16-19-22-24-26-28-31-34-37-40-43-46-52(55)58-49-50(48-57-51(54)45-42-39-36-33-30-21-18-15-12-9-6-3)59-53(56)47-44-41-38-35-32-29-27-25-23-20-17-14-11-8-5-2/h16-17,19-20,22-25,50H,4-15,18,21,26-49H2,1-3H3/b19-16-,20-17-,24-22-,25-23-
Instrument: AB Sciex TripleTOF 5600+ system (Q-TOF) equipped with a DuoSpray ion source
Instrument type: LC-ESI-QTOF
Ms type: MS2
Ion mode: POSITIVE
Collision energy: 45V
Column name: Acquity UPLC Peptide BEH C18 column (50*2.1 mm; 1.7 um; 130A)(Waters Co.,Milford, MA, USA)
Retention time: 13.98384
Precursor type: [M+NH4]+
Precursor m/z: 844.7388
Intensity: 41676
m/z	relative intensity
71.086	4
77.039	3
79.055	7
81.071	32
83.086	12
85.101	4
91.054	3
93.071	10
95.086	34
97.101	11
99.081	2
105.071	3
107.086	7
109.103	18
111.08	2
111.117	5
119.088	5
121.102	18
123.118	16
127.112	2
133.102	5
135.117	18
137.134	8
147.118	6
149.134	8
151.151	5
153.13	2
161.135	11
163.15	8
165.167	2
167.144	3
173.136	3
175.151	10
177.167	5
187.15	2
189.167	5
191.179	3
211.208	20
217.198	3
219.211	12
237.223	36
239.24	3
243.213	4
245.228	21
261.223	28
263.24	66
265.256	5
275.236	0
283.225	1
285.244	13
285.255	3
289.258	1
293.251	1
299.239	1
301.25	0
303.257	1
309.249	1
311.246	4
311.264	21
313.277	3
313.288	1
317.251	8
319.265	14
333.247	0
335.255	2
335.277	1
337.275	26
339.289	5
339.307	1
345.294	0
387.371	0
401.392	0
423.357	0
437.369	0
449.375	1
463.386	0
471.434	0
473.45	1
481.451	1
489.396	0
497.445	1
499.446	1
499.461	2
501.398	0
505.433	1
507.463	1
517.437	1
517.463	1
519.446	1
521.438	0
521.466	2
525.441	0
525.473	2
525.489	1
533.464	1
543.45	0
543.479	1
543.495	1
545.462	95
545.512	1
545.765	2
545.806	0
546.465	0
547.236	0
547.476	999
548.476	3
549.493	128
550.493	1
559.483	1
561.489	1
569.683	1
571.479	113
571.682	1
571.711	1
573.3	0
573.493	903
574.486	1
574.507	1
575.51	30
577.516	1
589.524	0
597.625	1
599.51	406
600.505	1
601.524	56
603.538	3
617.49	1
617.529	1
627.534	1
629.56	0
687.585	0
689.602	0
701.581	1
715.579	1
715.625	0
729.615	1
743.635	1
791.696	0
809.676	4
809.713	13
809.755	1
825.125	0
827.715	106
842.106	0
844.744	122
844.778	20
845.746	0
