Mass spectrum: TG 50:5; LC-ESI-QTOF; MS2
Name: TG 50:5
Class:  TAG
Formula: C53H92O6
Exact mass: 825.313
SMILES: CCCCCCCCCCCCCC(=O)OCC(COC(=O)CCCCCCCCC\C=C/C=C\C=C/CC)OC(=O)CCCCCCCC\C=C/C=C\CCCCC
InChI: InChI=1S/C53H92O6/c1-4-7-10-13-16-19-22-24-26-28-31-34-37-40-43-46-52(55)58-49-50(48-57-51(54)45-42-39-36-33-30-21-18-15-12-9-6-3)59-53(56)47-44-41-38-35-32-29-27-25-23-20-17-14-11-8-5-2/h7,10,13,16-17,19-20,22-23,25,50H,4-6,8-9,11-12,14-15,18,21,24,26-49H2,1-3H3/b10-7-,16-13-,20-17-,22-19-,25-23-
Instrument: AB Sciex TripleTOF 5600+ system (Q-TOF) equipped with a DuoSpray ion source
Instrument type: LC-ESI-QTOF
Ms type: MS2
Ion mode: POSITIVE
Collision energy: 45V
Column name: Acquity UPLC Peptide BEH C18 column (50*2.1 mm; 1.7 um; 130A)(Waters Co.,Milford, MA, USA)
Retention time: 13.79427
Precursor type: [M+NH4]+
Precursor m/z: 842.7208
Intensity: 90222
m/z	relative intensity
71.086	8
77.039	6
79.054	24
81.07	62
83.048	2
83.086	20
85.065	4
85.1	7
91.049	3
91.055	12
93.069	34
95.086	71
97.062	3
97.07	1
97.101	15
99.08	5
99.115	1
105.07	13
107.085	20
109.101	45
111.078	4
111.116	9
113.095	4
117.07	3
119.087	14
121.101	46
123.079	1
123.116	34
125.096	3
127.112	2
131.085	9
133.101	19
135.116	40
137.097	2
137.132	17
139.112	3
141.127	1
145.1	9
147.117	17
149.132	26
151.113	2
151.147	6
153.126	3
159.117	17
161.132	26
163.113	1
163.148	26
165.128	3
165.164	3
167.143	2
171.119	2
173.132	24
175.147	25
177.163	11
179.142	2
179.18	2
185.131	2
187.147	12
189.164	10
191.179	8
193.16	1
193.187	2
193.2	2
199.149	2
201.162	6
203.169	1
203.183	3
205.16	2
205.199	1
207.176	5
209.191	5
211.206	48
213.167	1
215.18	6
217.159	1
217.194	12
219.173	1
219.211	13
229.216	2
231.211	1
233.189	5
233.224	4
233.238	1
235.168	2
235.207	13
237.22	28
241.195	2
241.207	2
243.211	44
245.225	22
247.24	2
257.223	1
259.205	10
261.178	1
261.221	147
263.237	65
265.25	4
271.245	1
273.218	1
275.203	1
275.234	1
277.216	2
279.237	1
283.223	5
283.237	3
285.243	35
287.237	2
289.214	3
289.252	2
291.234	2
293.248	1
299.233	3
301.247	2
303.229	1
309.244	4
311.258	42
313.268	3
313.284	1
315.227	2
315.243	1
317.247	55
319.262	13
331.257	1
333.242	5
335.255	24
337.273	61
339.285	12
343.3	1
345.283	1
373.309	1
391.286	1
403.348	1
409.337	1
413.352	1
449.359	1
451.371	1
463.373	1
469.405	1
471.421	6
473.357	1
473.439	2
475.374	2
477.401	1
479.423	2
487.358	1
487.382	1
487.423	1
489.393	2
489.431	1
495.413	2
495.443	2
496.443	2
497.407	1
497.432	6
497.454	4
499.445	1
501.391	1
503.401	1
505.431	3
505.451	2
507.445	1
513.4	1
515.413	1
515.45	1
517.426	1
517.442	1
519.431	9
519.456	4
521.434	1
521.462	3
523.451	13
527.4	1
527.447	1
529.41	1
541.429	1
541.439	1
541.461	5
543.44	72
543.737	1
543.759	1
544.452	1
545.455	866
546.46	2
547.47	999
548.474	4
549.489	16
553.46	1
555.427	1
557.436	1
557.469	1
559.464	2
561.441	1
561.466	1
563.461	2
569.459	43
569.678	1
571.471	540
573.486	235
575.502	49
577.502	1
585.455	1
585.496	1
587.471	1
589.462	1
589.484	1
595.467	1
595.622	1
597.485	777
598.477	1
598.499	1
599.502	163
600.499	1
601.521	36
601.547	4
603.533	2
613.461	1
613.507	1
615.494	3
615.517	1
617.512	2
625.513	8
625.54	2
627.515	1
643.507	1
671.533	0
673.544	0
685.53	0
687.562	1
689.577	0
699.535	0
699.573	1
701.566	1
711.626	0
713.546	1
713.589	2
715.615	0
727.591	2
727.632	1
729.619	0
741.586	1
741.61	1
741.629	0
741.662	0
743.612	0
743.652	0
755.609	1
755.639	1
769.629	0
789.673	0
807.659	17
807.689	40
807.747	1
809.595	1
809.656	22
809.702	2
823.093	0
825.692	201
826.66	0
826.693	0
826.733	0
842.72	216
843.693	0
