Mass spectrum: TG 50:2; LC-ESI-QTOF; MS2
Name: TG 50:2
Class:  TAG
Formula: C53H98O6
Exact mass: 831.361
SMILES: CCCCCCCCCCCCCC(=O)OCC(COC(=O)CCCCCCCCC\C=C/CCCCCC)OC(=O)CCCCCCCCC\C=C/CCCCCC
InChI: InChI=1S/C53H98O6/c1-4-7-10-13-16-19-22-24-26-28-31-34-37-40-43-46-52(55)58-49-50(48-57-51(54)45-42-39-36-33-30-21-18-15-12-9-6-3)59-53(56)47-44-41-38-35-32-29-27-25-23-20-17-14-11-8-5-2/h19-20,22-23,50H,4-18,21,24-49H2,1-3H3/b22-19-,23-20-
Instrument: AB Sciex TripleTOF 5600+ system (Q-TOF) equipped with a DuoSpray ion source
Instrument type: LC-ESI-QTOF
Ms type: MS2
Ion mode: POSITIVE
Collision energy: 45V
Column name: Acquity UPLC Peptide BEH C18 column (50*2.1 mm; 1.7 um; 130A)(Waters Co.,Milford, MA, USA)
Retention time: 14.45958
Precursor type: [M+NH4]+
Precursor m/z: 848.768
Intensity: 862646
m/z	relative intensity
71.048	1
71.086	36
77.039	2
79.054	15
81.07	79
83.05	1
83.085	54
85.064	3
85.101	38
91.054	5
93.07	18
95.086	93
97.065	2
97.101	42
99.079	1
99.116	7
105.069	3
107.085	16
109.101	69
111.079	0
111.116	18
113.096	2
113.132	4
119.085	4
121.101	39
123.117	50
125.096	1
125.132	7
127.111	2
127.148	2
131.087	0
133.101	7
135.117	36
137.132	30
139.111	3
139.148	2
141.126	1
141.164	1
145.105	0
147.115	5
149.132	21
151.113	0
151.148	13
153.128	5
155.141	2
155.179	1
159.115	0
161.132	10
163.148	16
165.122	0
165.164	13
167.143	3
169.157	0
173.129	0
175.147	13
177.164	8
179.141	0
179.179	5
181.155	1
181.166	0
183.176	0
187.147	0
189.164	6
191.178	3
193.16	1
193.197	0
195.173	1
203.18	2
205.189	1
205.2	1
207.175	1
211.207	7
217.198	1
219.211	18
221.192	1
221.228	12
235.17	0
237.222	55
238.51	0
239.237	174
245.226	38
247.243	21
249.18	0
249.191	0
256.251	0
256.264	4
257.25	2
263.237	122
265.253	77
267.267	0
275.235	0
277.216	0
279.225	0
279.243	0
280.261	0
282.277	0
285.242	2
291.24	0
293.241	1
293.253	0
295.255	0
295.27	0
297.259	0
297.277	1
297.294	0
301.251	1
303.264	0
305.245	0
309.246	0
311.259	9
313.274	97
319.264	18
321.276	2
323.285	0
323.3	0
335.26	1
337.275	5
337.29	1
339.289	20
341.305	0
361.346	0
367.285	0
389.377	0
437.358	0
451.375	0
455.462	0
465.392	0
465.42	0
475.457	0
501.448	1
501.47	5
503.482	0
519.479	0
521.456	1
523.462	0
547.432	0
547.47	26
547.742	0
547.771	1
547.791	1
547.809	0
549.355	1
549.484	836
549.948	0
550.476	1
550.495	2
551.358	0
551.396	1
551.5	844
552.102	0
552.497	2
552.689	0
557.496	0
561.486	0
563.492	0
563.512	0
573.63	0
573.665	1
573.688	5
573.712	14
573.749	0
573.768	0
573.787	0
575.268	0
575.387	1
575.501	999
576.137	0
576.361	0
576.51	63
576.549	0
576.717	31
576.746	0
576.88	2
577.067	6
577.259	1
577.406	1
577.515	775
578.521	2
578.542	1
578.572	0
578.784	0
579.966	0
584.559	0
585.869	0
589.492	0
589.512	0
589.536	0
603.533	195
605.553	0
813.728	8
813.786	0
831.744	24
846.076	0
846.12	0
846.182	0
847.762	0
848.383	0
848.613	0
848.657	0
848.767	91
849.763	0
852.766	0
