Mass spectrum: TG 56:5; LC-ESI-QTOF; MS2
Name: TG 56:5
Class:  TAG
Formula: C59H104O6
Exact mass: 909.475
SMILES: CCCCCCCCCCCCCCCCCC(=O)OCC(COC(=O)CCC\C=C/C\C=C/C\C=C/CCCCCCCC)OC(=O)CCCCCCCC\C=C/C=C\CCCCC
InChI: InChI=1S/C59H104O6/c1-4-7-10-13-16-19-22-25-28-29-32-34-37-40-43-46-49-52-58(61)64-55-56(65-59(62)53-50-47-44-41-38-35-31-27-24-21-18-15-12-9-6-3)54-63-57(60)51-48-45-42-39-36-33-30-26-23-20-17-14-11-8-5-2/h18,21,24-25,27-28,32,34,40,43,56H,4-17,19-20,22-23,26,29-31,33,35-39,41-42,44-55H2,1-3H3/b21-18-,27-24-,28-25-,34-32-,43-40-
Instrument: AB Sciex TripleTOF 5600+ system (Q-TOF) equipped with a DuoSpray ion source
Instrument type: LC-ESI-QTOF
Ms type: MS2
Ion mode: POSITIVE
Collision energy: 45V
Column name: Acquity UPLC Peptide BEH C18 column (50*2.1 mm; 1.7 um; 130A)(Waters Co.,Milford, MA, USA)
Retention time: 14.30785
Precursor type: [M+NH4]+
Precursor m/z: 926.8193
Intensity: 3624
m/z	relative intensity
95.084	107
109.103	65
110.103	61
163.146	82
175.146	65
261.226	122
263.241	151
264.243	76
265.254	114
289.255	61
290.254	107
299.196	61
300.191	45
301.212	108
302.215	91
319.258	45
338.279	96
339.297	61
346.285	45
551.511	76
576.501	76
577.524	91
581.539	76
589.522	76
597.503	76
598.492	527
599.478	91
599.53	108
600.51	247
601.51	357
601.534	249
602.522	608
602.549	281
603.527	671
603.573	108
605.549	76
625.515	111
626.519	530
626.549	313
627.518	701
627.544	795
628.543	732
629.524	389
629.552	999
629.568	250
630.552	107
631.555	340
654.565	76
779.65	30
828.721	76
844.704	122
865.714	30
891.779	111
908.778	76
909.753	186
909.784	420
909.822	217
926.717	45
926.784	250
926.815	749
926.839	406
926.892	65
