Mass spectrum: TG 60:9; LC-ESI-QTOF; MS2
Name: TG 60:9
Class:  TAG
Formula: C63H104O6
Exact mass: 957.519
SMILES: CCCCCC\C=C/CCCCCCCCCC(=O)OCC(COC(=O)CCCCCCCC\C=C/C\C=C/C\C=C/C\C=C/CC)OC(=O)CCC\C=C/C\C=C/C\C=C/C\C=C/CCCCC
InChI: InChI=1S/C63H104O6/c1-4-7-10-13-16-19-22-25-28-30-31-33-35-38-41-44-47-50-53-56-62(65)68-59-60(58-67-61(64)55-52-49-46-43-40-37-34-27-24-21-18-15-12-9-6-3)69-63(66)57-54-51-48-45-42-39-36-32-29-26-23-20-17-14-11-8-5-2/h7,10,16-17,19-21,24-26,28-29,31,33,36,39,45,48,60H,4-6,8-9,11-15,18,22-23,27,30,32,34-35,37-38,40-44,46-47,49-59H2,1-3H3/b10-7-,19-16-,20-17-,24-21-,28-25-,29-26-,33-31-,39-36-,48-45-
Instrument: AB Sciex TripleTOF 5600+ system (Q-TOF) equipped with a DuoSpray ion source
Instrument type: LC-ESI-QTOF
Ms type: MS2
Ion mode: POSITIVE
Collision energy: 45V
Column name: Acquity UPLC Peptide BEH C18 column (50*2.1 mm; 1.7 um; 130A)(Waters Co.,Milford, MA, USA)
Retention time: 14.37618
Precursor type: [M+NH4]+
Precursor m/z: 974.8201
Intensity: 1912
m/z	relative intensity
91.051	29
93.072	41
95.084	41
109.101	29
119.081	37
121.102	35
131.082	41
147.115	35
171.116	35
173.137	48
177.165	36
185.133	29
189.159	41
199.15	37
200.15	31
201.161	65
203.171	41
203.18	173
213.157	29
217.189	29
229.181	41
241.197	35
265.256	82
269.225	83
287.23	30
287.237	47
287.25	65
295.241	31
297.262	41
313.255	35
313.277	58
315.262	70
315.281	41
337.278	44
339.27	38
339.284	113
339.298	95
341.3	66
343.304	31
369.283	29
371.293	46
389.308	89
393.296	29
583.467	43
585.48	52
597.488	76
599.503	35
601.505	56
609.475	58
623.513	88
625.494	65
625.515	401
625.533	107
625.554	41
627.515	76
627.526	118
627.535	71
627.544	89
627.556	35
628.549	83
629.543	141
651.538	83
652.534	76
653.513	133
653.521	132
653.529	168
653.54	272
653.555	679
653.572	140
653.601	41
655.553	42
675.514	48
675.523	83
675.537	155
677.524	59
677.552	35
677.562	23
677.573	17
700.538	19
701.543	59
701.572	17
801.688	137
845.941	15
854.74	29
865.684	286
865.72	999
865.751	221
865.763	171
866.71	20
873.733	14
891.739	36
892.735	274
892.757	71
892.767	71
892.778	41
957.765	53
957.774	60
957.786	84
957.805	179
974.777	96
974.791	173
974.799	161
974.811	275
974.824	239
974.835	184
974.843	107
974.857	71
974.865	53
