Mass spectrum: TG 47:3; LC-ESI-QTOF; MS2
Name: TG 47:3
Class:  TAG
Formula: C50H90O6
Exact mass: 787.264
SMILES: CCCCCCCCCCCCCC(=O)OCC(COC(=O)CCCCCCCC\C=C/C=C\CCCCC)OC(=O)CCCCCCC\C=C/CCCCC
InChI: InChI=1S/C50H90O6/c1-4-7-10-13-16-19-22-24-25-26-29-31-34-37-40-43-49(52)55-46-47(45-54-48(51)42-39-36-33-30-27-21-18-15-12-9-6-3)56-50(53)44-41-38-35-32-28-23-20-17-14-11-8-5-2/h16-17,19-20,22,24,47H,4-15,18,21,23,25-46H2,1-3H3/b19-16-,20-17-,24-22-
Instrument: AB Sciex TripleTOF 5600+ system (Q-TOF) equipped with a DuoSpray ion source
Instrument type: LC-ESI-QTOF
Ms type: MS2
Ion mode: POSITIVE
Collision energy: 45V
Column name: Acquity UPLC Peptide BEH C18 column (50*2.1 mm; 1.7 um; 130A)(Waters Co.,Milford, MA, USA)
Retention time: 13.78469
Precursor type: [M+NH4]+
Precursor m/z: 804.7075
Intensity: 538
m/z	relative intensity
95.085	140
186.996	98
203.175	130
221.187	326
226.986	558
268.997	232
269.011	264
309.001	65
313.273	228
339.29	130
390.998	490
433.029	107
472.988	248
505.422	228
507.443	395
519.441	65
531.439	359
533.438	261
533.464	330
545.451	130
547.493	98
549.466	199
549.49	999
559.465	196
561.483	65
573.491	163
587.503	130
601.511	65
804.488	65
804.708	238
