Mass spectrum: TG 58:11; LC-ESI-QTOF; MS2
Name: TG 58:11
Class:  TAG
Formula: C61H96O6
Exact mass: 925.433
SMILES: CCCCC\C=C/C=C\CCCCCCCCC(=O)OCC(COC(=O)CC\C=C/C\C=C/C\C=C/C\C=C/C\C=C/C\C=C/CC)OC(=O)CCCCCCCCC\C=C/C=C\C=C/CC
InChI: InChI=1S/C61H96O6/c1-4-7-10-13-16-19-22-25-28-29-30-31-34-36-39-42-45-48-51-54-60(63)66-57-58(67-61(64)55-52-49-46-43-40-37-33-27-24-21-18-15-12-9-6-3)56-65-59(62)53-50-47-44-41-38-35-32-26-23-20-17-14-11-8-5-2/h7,9-10,12,15-21,23-26,28,30-31,36,39,45,48,58H,4-6,8,11,13-14,22,27,29,32-35,37-38,40-44,46-47,49-57H2,1-3H3/b10-7-,12-9-,18-15-,19-16-,20-17-,24-21-,26-23-,28-25-,31-30-,39-36-,48-45-
Instrument: AB Sciex TripleTOF 5600+ system (Q-TOF) equipped with a DuoSpray ion source
Instrument type: LC-ESI-QTOF
Ms type: MS2
Ion mode: POSITIVE
Collision energy: 45V
Column name: Acquity UPLC Peptide BEH C18 column (50*2.1 mm; 1.7 um; 130A)(Waters Co.,Milford, MA, USA)
Retention time: 13.8097
Precursor type: [M+NH4]+
Precursor m/z: 942.7529
Intensity: 2769
m/z	relative intensity
81.069	27
91.053	16
93.068	11
95.085	26
97.1	9
105.071	9
107.085	9
109.1	9
119.084	9
121.1	15
123.12	11
131.085	10
133.102	16
135.116	22
147.116	9
159.115	14
161.129	15
163.148	10
171.114	11
173.126	11
175.149	16
183.119	10
187.151	9
197.133	16
199.146	10
201.168	15
211.147	13
213.164	12
215.18	14
223.147	9
225.164	13
227.188	9
243.209	11
261.221	19
263.233	28
269.228	11
277.212	4
283.234	4
285.22	4
291.211	4
293.225	29
295.239	5
307.208	4
309.222	9
311.229	13
311.241	35
317.249	14
319.257	5
333.227	5
335.255	18
335.266	5
337.27	32
337.284	26
367.261	10
379.298	4
385.266	5
523.446	7
555.438	5
571.45	4
573.462	4
595.467	12
596.473	11
597.486	999
597.544	6
599.495	17
599.514	9
615.51	5
621.489	6
621.524	6
623.497	17
645.464	47
645.475	59
645.49	112
647.466	35
647.477	43
647.5	212
647.523	47
663.504	6
749.578	1
759.612	2
827.645	1
836.678	1
841.66	1
860.693	5
873.664	17
873.696	19
883.662	12
883.754	9
907.708	6
925.677	12
925.694	9
925.712	38
925.733	11
925.747	20
925.758	6
925.773	7
942.719	39
942.73	67
942.755	225
942.818	4
