Mass spectrum: AC 16:0; LC-ESI-QTOF; MS2
Name: AC 16:0
Class:  AcylCarnitine
Formula: C23H46NO4
Exact mass: 400.62399999999997
SMILES: CCCCCCCCCCCCCCCC(=O)OC(CC(O)=O)C[N+](C)(C)C
InChI: InChI=1S/C23H45NO4/c1-5-6-7-8-9-10-11-12-13-14-15-16-17-18-23(27)28-21(19-22(25)26)20-24(2,3)4/h21H,5-20H2,1-4H3/p+1
Instrument: AB Sciex TripleTOF 5600+ system (Q-TOF) equipped with a DuoSpray ion source
Instrument type: LC-ESI-QTOF
Ms type: MS2
Ion mode: POSITIVE
Collision energy: 45V
Column name: Acquity UPLC Peptide BEH C18 column (50*2.1 mm; 1.7 um; 130A)(Waters Co.,Milford, MA, USA)
Retention time: 6.065103
Precursor type: [M+H]+
Precursor m/z: 400.3418
Intensity: 16074
m/z	relative intensity
83.085	5
84.081	8
84.77	11
85.028	999
85.101	9
95.085	16
109.101	7
144.101	35
233.032	6
239.238	17
251.045	10
257.243	5
341.251	6
341.271	53
348.233	2
399.096	2
400.32	47
400.343	275
