Mass spectrum: TG 60:12; LC-ESI-QTOF; MS2
Name: TG 60:12
Class:  TAG
Formula: C63H98O6
Exact mass: 951.471
SMILES: CCCCCCCCCCCCCCCC(=O)OCC(COC(=O)CC\C=C/C\C=C/C\C=C/C\C=C/C\C=C/C\C=C/CC)OC(=O)CC\C=C/C\C=C/C\C=C/C\C=C/C\C=C/C\C=C/CC
InChI: InChI=1S/C63H98O6/c1-4-7-10-13-16-19-22-25-27-29-31-33-35-38-41-44-47-50-53-56-62(65)68-59-60(58-67-61(64)55-52-49-46-43-40-37-24-21-18-15-12-9-6-3)69-63(66)57-54-51-48-45-42-39-36-34-32-30-28-26-23-20-17-14-11-8-5-2/h7-8,10-11,16-17,19-20,25-28,31-34,38-39,41-42,47-48,50-51,60H,4-6,9,12-15,18,21-24,29-30,35-37,40,43-46,49,52-59H2,1-3H3/b10-7-,11-8-,19-16-,20-17-,27-25-,28-26-,33-31-,34-32-,41-38-,42-39-,50-47-,51-48-
Instrument: AB Sciex TripleTOF 5600+ system (Q-TOF) equipped with a DuoSpray ion source
Instrument type: LC-ESI-QTOF
Ms type: MS2
Ion mode: POSITIVE
Collision energy: 45V
Column name: Acquity UPLC Peptide BEH C18 column (50*2.1 mm; 1.7 um; 130A)(Waters Co.,Milford, MA, USA)
Retention time: 14.03612
Precursor type: [M+NH4]+
Precursor m/z: 968.7709
Intensity: 15705
m/z	relative intensity
71.085	2
77.037	3
79.054	10
81.069	15
83.085	5
85.102	4
91.054	10
93.07	11
95.084	13
97.102	2
105.069	8
107.084	7
109.099	9
117.069	8
119.086	12
121.101	8
123.116	4
129.07	5
131.085	14
133.1	8
135.116	6
141.069	2
143.085	7
145.099	9
147.116	5
149.095	2
149.132	4
155.084	4
157.1	10
159.116	14
161.131	10
163.147	5
165.068	2
167.085	4
169.101	13
171.116	18
173.131	11
175.111	2
175.146	10
181.097	5
181.109	2
183.116	10
185.095	2
185.123	3
185.134	11
187.112	5
187.146	8
189.128	3
189.162	2
195.115	4
197.13	7
199.147	13
201.128	4
201.163	15
203.143	3
203.178	3
207.115	2
209.13	10
211.147	12
213.164	14
215.141	2
215.177	8
221.133	2
223.146	10
225.162	9
227.141	4
227.171	7
227.182	17
229.157	6
235.154	2
237.162	5
239.172	3
239.185	3
239.237	16
241.157	4
241.192	2
251.176	6
251.189	2
253.189	3
255.177	2
265.194	4
267.21	4
269.225	8
281.228	1
283.201	2
283.242	6
289.189	1
291.215	3
293.225	36
295.239	1
297.185	1
297.278	2
307.21	1
309.222	7
311.236	52
312.246	1
313.234	1
313.273	77
341.274	1
367.257	3
367.281	14
369.271	1
383.249	2
383.265	2
385.27	16
385.298	1
387.29	1
445.335	1
461.356	1
472.997	0
473.36	0
475.375	0
489.379	0
499.376	0
501.387	0
503.39	0
503.425	0
507.445	0
513.426	1
527.414	0
529.416	0
531.458	1
533.404	0
541.43	0
543.44	0
549.453	1
549.481	1
553.419	0
554.993	0
557.441	0
567.479	0
573.385	0
597.473	0
601.396	0
603.443	0
621.462	3
621.494	2
621.53	1
621.562	2
621.61	0
623.265	1
623.372	0
623.5	999
624.505	31
624.541	1
625.418	0
625.525	6
625.541	2
639.481	0
641.478	0
641.527	0
693.342	0
693.564	0
695.5	121
696.492	2
696.522	1
711.504	1
713.497	0
713.557	0
733.54	0
773.579	0
775.58	0
789.603	0
815.606	0
829.629	0
841.619	0
855.673	0
855.774	0
867.65	0
869.649	0
881.663	1
886.715	0
933.723	2
933.767	0
933.819	0
937.723	2
937.778	0
951.677	2
951.727	22
951.756	25
951.791	3
952.766	1
965.767	1
968.669	0
968.766	262
969.742	3
969.759	3
969.778	9
969.814	2
