Mass spectrum: BMP 36:3; LC-ESI-QTOF; MS2
Name: BMP 36:3
Class:  BMP
Formula: C42H77O10P
Exact mass: 773.044
SMILES: CCCCCCCC\C=C/CCCCCCCC(=O)OC(CO)COP(O)(=O)OCC(CO)OC(=O)CCCCCCC\C=C/C\C=C/CCCCC
InChI: InChI=1S/C42H77O10P/c1-3-5-7-9-11-13-15-17-19-21-23-25-27-29-31-33-41(45)51-39(35-43)37-49-53(47,48)50-38-40(36-44)52-42(46)34-32-30-28-26-24-22-20-18-16-14-12-10-8-6-4-2/h11,13,17-20,39-40,43-44H,3-10,12,14-16,21-38H2,1-2H3,(H,47,48)/b13-11-,19-17-,20-18-
Instrument: AB Sciex TripleTOF 5600+ system (Q-TOF) equipped with a DuoSpray ion source
Instrument type: LC-ESI-QTOF
Ms type: MS2
Ion mode: POSITIVE
Collision energy: 45V
Column name: Acquity UPLC Peptide BEH C18 column (50*2.1 mm; 1.7 um; 130A)(Waters Co.,Milford, MA, USA)
Retention time: 8.180935
Precursor type: [M+NH4]+
Precursor m/z: 790.5609
Intensity: 1791
m/z	relative intensity
83.085	23
89.059	23
95.092	34
133.081	34
149.132	23
163.146	23
177.115	46
309.193	26
313.269	23
327.073	23
337.263	93
337.277	740
337.294	70
339.264	47
339.29	999
601.524	69
605.558	26
737.503	57
773.555	26
790.571	26
790.619	46
