Mass spectrum: TG 55:2; LC-ESI-QTOF; MS2
Name: TG 55:2
Class:  TAG
Formula: C58H108O6
Exact mass: 901.496
SMILES: CCCCCCCCCCCCCCCCCC(=O)OCC(COC(=O)CCCCCCC\C=C/CCCCCCCCC)OC(=O)CCCCCCCCC\C=C/CCCCCC
InChI: InChI=1S/C58H108O6/c1-4-7-10-13-16-19-22-25-28-31-33-36-39-42-45-48-51-57(60)63-54-55(64-58(61)52-49-46-43-40-37-34-30-27-24-21-18-15-12-9-6-3)53-62-56(59)50-47-44-41-38-35-32-29-26-23-20-17-14-11-8-5-2/h21,24,28,31,55H,4-20,22-23,25-27,29-30,32-54H2,1-3H3/b24-21-,31-28-
Instrument: AB Sciex TripleTOF 5600+ system (Q-TOF) equipped with a DuoSpray ion source
Instrument type: LC-ESI-QTOF
Ms type: MS2
Ion mode: POSITIVE
Collision energy: 45V
Column name: Acquity UPLC Peptide BEH C18 column (50*2.1 mm; 1.7 um; 130A)(Waters Co.,Milford, MA, USA)
Retention time: 15.39191
Precursor type: [M+NH4]+
Precursor m/z: 918.8445
Intensity: 2268
m/z	relative intensity
71.085	5
81.067	9
81.077	4
83.087	10
95.086	11
97.102	11
107.086	5
109.097	8
111.117	8
121.102	11
123.117	4
135.115	8
137.131	6
165.164	5
245.224	4
247.236	9
263.24	13
265.251	41
267.266	5
279.269	8
281.284	6
293.282	5
307.296	3
321.277	3
327.074	6
339.288	8
341.305	8
344.981	7
355.323	7
383.145	14
383.357	2
439.197	15
439.217	8
495.262	30
495.279	9
495.291	10
549.489	12
551.33	23
563.494	10
575.495	64
575.521	19
577.509	26
577.526	24
577.557	6
589.509	10
589.529	10
591.534	144
591.577	6
603.536	449
604.535	6
605.528	67
605.559	178
607.398	15
617.528	86
617.553	244
617.591	9
619.565	999
620.565	9
621.568	146
621.599	54
631.556	57
631.582	26
633.573	8
633.596	11
645.564	54
645.587	89
645.608	20
647.584	13
647.609	13
663.464	10
673.601	7
883.83	2
901.813	9
901.84	9
915.93	1
918.583	5
918.789	65
918.819	69
918.859	90
919.829	8
920.464	2
