Mass spectrum: TG 56:10; LC-ESI-QTOF; MS2
Name: TG 56:10
Class:  TAG
Formula: C59H94O6
Exact mass: 899.395
SMILES: CCCCCCCC\C=C/C\C=C/CCC(=O)OCC(COC(=O)CC\C=C/C\C=C/C\C=C/C\C=C/C\C=C/C\C=C/CC)OC(=O)CCCCCCCC\C=C/C=C\CCCCC
InChI: InChI=1S/C59H94O6/c1-4-7-10-13-16-19-22-25-27-28-29-30-32-34-37-40-43-46-49-52-58(61)64-55-56(54-63-57(60)51-48-45-42-39-36-33-24-21-18-15-12-9-6-3)65-59(62)53-50-47-44-41-38-35-31-26-23-20-17-14-11-8-5-2/h7,10,16-17,19-20,23,25-27,29-30,33-34,36-37,42-43,45-46,56H,4-6,8-9,11-15,18,21-22,24,28,31-32,35,38-41,44,47-55H2,1-3H3/b10-7-,19-16-,20-17-,26-23-,27-25-,30-29-,36-33-,37-34-,45-42-,46-43-
Instrument: AB Sciex TripleTOF 5600+ system (Q-TOF) equipped with a DuoSpray ion source
Instrument type: LC-ESI-QTOF
Ms type: MS2
Ion mode: POSITIVE
Collision energy: 45V
Column name: Acquity UPLC Peptide BEH C18 column (50*2.1 mm; 1.7 um; 130A)(Waters Co.,Milford, MA, USA)
Retention time: 13.74293
Precursor type: [M+NH4]+
Precursor m/z: 916.739
Intensity: 713
m/z	relative intensity
81.069	34
93.069	39
95.087	39
107.086	28
123.113	34
133.101	28
185.132	29
201.163	30
203.176	28
209.129	45
235.207	29
263.241	45
283.245	24
293.23	79
309.219	34
309.249	56
311.222	39
311.238	74
327.081	34
335.26	25
337.27	63
383.143	91
385.264	17
391.286	17
439.193	92
439.21	104
439.233	28
495.267	302
495.282	58
551.325	120
569.458	26
571.448	128
571.456	264
571.476	999
573.483	28
607.388	92
607.416	51
619.443	28
619.455	34
619.467	104
619.488	98
621.499	68
645.482	56
647.485	93
647.51	226
647.53	58
663.458	80
881.701	22
899.533	45
899.675	39
899.701	28
899.73	37
916.538	28
916.583	45
916.696	39
916.711	46
916.722	75
916.755	150
