Mass spectrum: ChE 18:1; LC-ESI-QTOF; MS2
Name: ChE 18:1
Class:  CE
Formula: C45H78O2
Exact mass: 651.1170000000001
SMILES: CCCCCCCC\C=C/CCCCCCCC(=O)O[C@H]1CC[C@]2(C)[C@H]3CC[C@]4(C)[C@H](CC[C@H]4[C@@H]3CC=C2C1)[C@H](C)CCCC(C)C
InChI: InChI=1S/C45H78O2/c1-7-8-9-10-11-12-13-14-15-16-17-18-19-20-21-25-43(46)47-38-30-32-44(5)37(34-38)26-27-39-41-29-28-40(36(4)24-22-23-35(2)3)45(41,6)33-31-42(39)44/h14-15,26,35-36,38-42H,7-13,16-25,27-34H2,1-6H3/b15-14-/t36-,38+,39+,40-,41+,42+,44+,45-/m1/s1
Instrument: AB Sciex TripleTOF 5600+ system (Q-TOF) equipped with a DuoSpray ion source
Instrument type: LC-ESI-QTOF
Ms type: MS2
Ion mode: POSITIVE
Collision energy: 45V
Column name: Acquity UPLC Peptide BEH C18 column (50*2.1 mm; 1.7 um; 130A)(Waters Co.,Milford, MA, USA)
Retention time: 14.86822
Precursor type: [M+NH4]+
Precursor m/z: 668.6334
Intensity: 21387
m/z	relative intensity
79.055	4
81.069	19
83.084	13
85.1	7
91.053	4
93.072	6
95.083	31
97.098	9
105.068	11
107.084	13
109.1	37
111.116	11
119.085	14
121.1	24
123.115	16
125.129	4
133.1	10
135.115	45
137.131	9
147.115	66
149.131	27
151.149	7
159.111	6
161.133	80
163.147	14
165.164	9
173.131	7
175.147	66
177.166	12
179.178	19
187.15	14
189.163	38
191.176	8
193.196	11
201.162	20
203.179	28
205.193	11
205.206	5
207.209	6
215.179	51
217.195	18
219.21	23
229.194	33
233.226	35
243.21	58
245.224	15
247.242	23
257.227	30
259.24	40
261.258	9
273.259	26
285.257	6
287.272	38
299.268	3
301.286	2
313.285	8
313.306	1
327.303	2
341.321	2
368.207	3
368.235	1
369.351	999
369.512	1
371.359	0
669.431	0
