Mass spectrum: TG 56:2; LC-ESI-QTOF; MS2
Name: TG 56:2
Class:  TAG
Formula: C59H110O6
Exact mass: 915.523
SMILES: CCCCCCCCCCCCCCCC(=O)OCC(COC(=O)CCCCCCCCC\C=C/CCCCCCCCCC)OC(=O)CCCCCCCCC\C=C/CCCCCC
InChI: InChI=1S/C59H110O6/c1-4-7-10-13-16-19-22-25-27-28-29-30-32-34-37-40-43-46-49-52-58(61)64-55-56(54-63-57(60)51-48-45-42-39-36-33-24-21-18-15-12-9-6-3)65-59(62)53-50-47-44-41-38-35-31-26-23-20-17-14-11-8-5-2/h20,23,28-29,56H,4-19,21-22,24-27,30-55H2,1-3H3/b23-20-,29-28-
Instrument: AB Sciex TripleTOF 5600+ system (Q-TOF) equipped with a DuoSpray ion source
Instrument type: LC-ESI-QTOF
Ms type: MS2
Ion mode: POSITIVE
Collision energy: 45V
Column name: Acquity UPLC Peptide BEH C18 column (50*2.1 mm; 1.7 um; 130A)(Waters Co.,Milford, MA, USA)
Retention time: 15.62539
Precursor type: [M+NH4]+
Precursor m/z: 932.8586
Intensity: 7094
m/z	relative intensity
81.069	14
83.086	12
85.097	3
85.103	4
93.067	3
95.085	22
97.095	4
97.104	8
107.089	2
109.102	10
111.115	9
121.101	7
123.115	8
125.128	3
135.116	9
137.132	3
149.132	5
163.146	2
165.162	3
177.16	3
239.235	9
247.242	12
263.235	3
265.252	42
267.253	2
267.27	7
275.275	6
293.28	21
293.294	10
295.303	3
303.312	2
313.27	2
319.276	1
321.269	1
321.31	8
339.288	9
341.282	1
341.3	5
341.313	3
349.307	2
367.316	7
367.347	1
369.341	3
377.333	2
395.345	1
432.999	1
549.474	5
549.494	15
551.497	4
575.499	20
575.533	2
577.494	41
577.52	188
578.501	3
579.536	5
599.503	3
600.511	3
602.514	2
603.536	251
603.67	3
604.526	2
605.549	801
606.525	5
606.555	26
607.59	2
608.548	3
608.586	4
617.547	3
627.509	2
627.528	3
627.551	4
628.499	2
628.525	11
628.542	8
628.56	4
629.562	6
629.603	2
630.546	5
631.564	670
632.556	9
632.586	4
633.578	999
634.558	9
634.588	13
635.56	2
635.595	27
635.624	7
655.567	4
656.538	2
656.575	4
659.592	253
660.604	4
661.589	6
661.619	14
680.853	0
687.609	5
687.65	3
697.669	1
897.801	4
897.841	1
909.943	2
911.777	2
912.804	420
912.885	3
913.83	2
915.82	13
915.862	4
932.786	4
932.829	51
932.856	152
932.887	60
933.85	4
933.896	1
