Mass spectrum: TG 54:8; LC-ESI-QTOF; MS2
Name: TG 54:8
Class:  TAG
Formula: C57H94O6
Exact mass: 875.3729999999999
SMILES: CCCCCCCCCCCCCC(=O)OCC(COC(=O)CC\C=C/C\C=C/C\C=C/C\C=C/C\C=C/C\C=C/CC)OC(=O)CCCCCCCC\C=C/C=C\CCCCC
InChI: InChI=1S/C57H94O6/c1-4-7-10-13-16-19-22-24-26-27-28-29-31-32-35-38-41-44-47-50-56(59)62-53-54(52-61-55(58)49-46-43-40-37-34-21-18-15-12-9-6-3)63-57(60)51-48-45-42-39-36-33-30-25-23-20-17-14-11-8-5-2/h7,10,16-17,19-20,23-26,28-29,32,35,41,44,54H,4-6,8-9,11-15,18,21-22,27,30-31,33-34,36-40,42-43,45-53H2,1-3H3/b10-7-,19-16-,20-17-,25-23-,26-24-,29-28-,35-32-,44-41-
Instrument: AB Sciex TripleTOF 5600+ system (Q-TOF) equipped with a DuoSpray ion source
Instrument type: LC-ESI-QTOF
Ms type: MS2
Ion mode: POSITIVE
Collision energy: 45V
Column name: Acquity UPLC Peptide BEH C18 column (50*2.1 mm; 1.7 um; 130A)(Waters Co.,Milford, MA, USA)
Retention time: 13.83095
Precursor type: [M+NH4]+
Precursor m/z: 892.7351
Intensity: 6151
m/z	relative intensity
79.053	8
81.068	27
83.086	11
91.052	11
93.071	18
95.085	26
105.069	9
107.084	11
109.099	16
117.071	12
119.085	9
121.099	13
123.115	14
129.069	7
131.084	19
133.1	13
135.116	21
137.132	8
145.101	14
147.115	9
149.132	13
157.101	9
159.116	14
161.132	21
163.148	14
169.103	6
171.114	9
173.132	18
175.143	6
175.153	9
183.115	10
185.131	15
187.149	17
189.167	8
197.132	11
199.15	13
201.164	74
211.146	11
213.163	8
219.209	10
225.162	9
237.222	32
239.175	8
243.207	6
257.231	7
261.223	8
263.239	25
265.197	6
267.211	73
283.203	9
285.221	67
287.239	2
291.223	2
293.244	3
299.204	2
309.232	3
311.257	105
311.289	3
313.263	4
313.275	10
313.29	3
317.249	3
319.257	5
335.252	9
335.268	5
337.272	73
339.305	2
341.258	5
357.244	3
359.262	3
365.268	5
391.285	4
437.359	3
459.341	2
499.454	4
521.435	2
527.427	2
529.441	2
545.443	4
545.471	3
547.432	2
547.476	47
567.419	3
569.44	2
571.46	4
571.485	6
571.687	3
573.487	999
574.466	2
574.487	12
574.509	24
593.432	3
593.474	3
595.472	178
596.471	4
597.486	25
597.517	4
599.506	3
601.532	4
619.453	10
619.478	19
621.486	257
622.479	11
623.524	2
647.526	3
739.57	2
753.616	1
765.616	2
791.63	1
793.638	2
805.633	1
845.679	2
847.663	14
847.704	23
848.691	1
857.683	6
857.709	4
857.736	2
875.657	4
875.704	77
875.742	14
875.761	8
876.695	2
892.688	19
892.733	198
892.761	35
893.741	6
893.786	2
