Mass spectrum: TG 49:3; LC-ESI-QTOF; MS2
Name: TG 49:3
Class:  TAG
Formula: C52H94O6
Exact mass: 815.318
SMILES: CCCCCCCCCCCCCC(=O)OCC(COC(=O)CCCCCCCC\C=C/C=C\CCCCC)OC(=O)CCCCC\C=C/CCCCCCCCC
InChI: InChI=1S/C52H94O6/c1-4-7-10-13-16-19-22-24-26-28-30-33-36-39-42-45-51(54)57-48-49(47-56-50(53)44-41-38-35-32-29-21-18-15-12-9-6-3)58-52(55)46-43-40-37-34-31-27-25-23-20-17-14-11-8-5-2/h16,19,22,24,27,31,49H,4-15,17-18,20-21,23,25-26,28-30,32-48H2,1-3H3/b19-16-,24-22-,31-27-
Instrument: AB Sciex TripleTOF 5600+ system (Q-TOF) equipped with a DuoSpray ion source
Instrument type: LC-ESI-QTOF
Ms type: MS2
Ion mode: POSITIVE
Collision energy: 45V
Column name: Acquity UPLC Peptide BEH C18 column (50*2.1 mm; 1.7 um; 130A)(Waters Co.,Milford, MA, USA)
Retention time: 14.05271
Precursor type: [M+NH4]+
Precursor m/z: 832.7382
Intensity: 4073
m/z	relative intensity
81.068	58
83.086	24
95.085	59
97.1	21
107.086	19
109.1	36
121.1	26
123.115	26
137.134	16
163.144	29
203.178	16
211.204	16
221.19	21
225.221	35
237.22	41
245.227	28
251.237	21
263.236	71
277.226	3
285.246	11
293.247	8
297.247	4
299.256	26
311.261	28
313.282	21
319.251	6
319.269	16
325.261	4
335.27	3
337.274	24
339.284	19
339.298	19
355.061	4
463.401	5
533.456	150
533.487	16
535.47	999
536.48	19
537.486	32
545.458	16
547.46	173
547.477	158
547.502	38
549.472	33
549.493	31
559.46	243
559.489	89
561.486	930
563.502	18
573.484	762
573.511	97
573.531	18
574.481	18
575.492	139
575.52	56
575.539	21
577.517	56
577.542	14
577.557	19
587.468	11
587.501	116
587.525	61
589.523	18
601.513	54
601.537	38
615.538	11
773.648	4
797.693	9
815.682	13
815.709	36
815.766	6
832.689	8
832.726	81
832.757	59
833.726	3
