Mass spectrum: TG 55:2; LC-ESI-QTOF; MS2
Name: TG 55:2
Class:  TAG
Formula: C58H108O6
Exact mass: 901.496
SMILES: CCCCCCCCCCCCCCCC(=O)OCC(COC(=O)CCCCCCC\C=C/CCCCCCCCCCC)OC(=O)CCCCCCCCC\C=C/CCCCCC
InChI: InChI=1S/C58H108O6/c1-4-7-10-13-16-19-22-25-27-28-29-31-33-36-39-42-45-48-51-57(60)63-54-55(53-62-56(59)50-47-44-41-38-35-32-24-21-18-15-12-9-6-3)64-58(61)52-49-46-43-40-37-34-30-26-23-20-17-14-11-8-5-2/h20,23,29,31,55H,4-19,21-22,24-28,30,32-54H2,1-3H3/b23-20-,31-29-
Instrument: AB Sciex TripleTOF 5600+ system (Q-TOF) equipped with a DuoSpray ion source
Instrument type: LC-ESI-QTOF
Ms type: MS2
Ion mode: POSITIVE
Collision energy: 45V
Column name: Acquity UPLC Peptide BEH C18 column (50*2.1 mm; 1.7 um; 130A)(Waters Co.,Milford, MA, USA)
Retention time: 15.38999
Precursor type: [M+NH4]+
Precursor m/z: 918.8442
Intensity: 11558
m/z	relative intensity
71.085	2
79.053	2
81.069	13
83.08	2
83.086	7
85.1	5
93.071	2
95.085	16
97.1	8
107.083	2
109.101	10
111.116	6
121.1	7
123.113	6
125.132	1
135.114	4
135.125	2
137.133	5
149.13	3
151.146	3
153.122	1
163.141	1
163.151	2
165.164	4
177.163	1
179.18	1
191.185	1
239.234	1
245.237	2
247.238	10
247.257	2
253.252	3
261.254	1
262.975	1
263.239	6
265.253	42
267.264	3
275.272	1
279.256	2
279.27	4
281.285	9
293.285	4
307.3	1
313.274	2
319.264	2
321.276	2
321.308	2
327.288	1
337.27	2
339.287	8
339.303	2
341.294	1
341.324	0
344.987	2
353.305	1
355.318	6
367.324	1
381.337	1
383.346	1
549.482	2
549.503	1
561.472	1
563.491	10
563.513	6
573.533	1
573.562	1
575.499	75
576.511	2
577.516	54
589.515	15
589.546	1
591.534	144
592.536	3
601.655	1
603.533	535
604.516	2
604.544	4
604.56	1
605.552	152
606.565	1
617.547	203
618.552	2
619.563	999
620.561	6
621.554	18
621.581	94
631.562	103
632.569	1
633.571	11
633.593	10
645.549	14
645.581	118
647.594	13
659.586	6
659.609	3
673.606	2
673.648	0
836.749	0
883.793	1
883.838	0
901.805	8
901.832	7
901.869	0
918.769	4
918.802	15
918.846	169
919.038	0
919.741	1
919.843	1
919.878	1
