Mass spectrum: TG 58:9; LC-ESI-QTOF; MS2
Name: TG 58:9
Class:  TAG
Formula: C61H100O6
Exact mass: 929.4649999999999
SMILES: CCCCCC\C=C/CCCCCCCCCC(=O)OCC(COC(=O)CC\C=C/C\C=C/C\C=C/C\C=C/C\C=C/C\C=C/CC)OC(=O)CCCCCCCC\C=C/C=C\CCCCC
InChI: InChI=1S/C61H100O6/c1-4-7-10-13-16-19-22-25-28-29-30-31-34-36-39-42-45-48-51-54-60(63)66-57-58(67-61(64)55-52-49-46-43-40-37-33-27-24-21-18-15-12-9-6-3)56-65-59(62)53-50-47-44-41-38-35-32-26-23-20-17-14-11-8-5-2/h7,10,16,18-21,23-25,27-28,30-31,36,39,45,48,58H,4-6,8-9,11-15,17,22,26,29,32-35,37-38,40-44,46-47,49-57H2,1-3H3/b10-7-,19-16-,21-18-,23-20-,27-24-,28-25-,31-30-,39-36-,48-45-
Instrument: AB Sciex TripleTOF 5600+ system (Q-TOF) equipped with a DuoSpray ion source
Instrument type: LC-ESI-QTOF
Ms type: MS2
Ion mode: POSITIVE
Collision energy: 45V
Column name: Acquity UPLC Peptide BEH C18 column (50*2.1 mm; 1.7 um; 130A)(Waters Co.,Milford, MA, USA)
Retention time: 14.1825
Precursor type: [M+NH4]+
Precursor m/z: 946.7871
Intensity: 36265
m/z	relative intensity
71.085	1
79.053	9
81.07	21
83.085	7
91.054	8
93.07	10
95.085	19
97.1	6
105.069	4
107.084	7
109.101	12
111.08	2
111.116	4
117.067	4
119.085	8
121.101	12
123.117	7
129.071	2
131.086	8
133.101	7
135.117	12
137.133	3
141.068	2
143.082	2
145.101	4
147.116	6
149.131	5
149.14	2
151.148	3
153.127	2
155.082	3
157.102	4
159.117	9
161.132	10
163.147	8
165.167	2
167.086	1
169.102	6
171.118	13
173.131	7
175.147	11
177.164	3
181.101	6
183.117	6
185.13	8
187.113	2
187.148	5
189.128	3
189.163	4
195.11	2
195.124	2
197.132	7
199.114	2
199.147	8
201.128	2
201.163	13
203.181	4
209.132	6
211.141	4
211.151	7
213.127	2
213.165	12
215.143	2
215.179	6
223.147	6
223.162	1
225.163	6
227.142	5
227.181	16
229.158	3
237.163	4
239.183	3
241.158	3
241.197	2
245.23	5
247.244	8
251.174	3
251.186	2
253.196	2
255.179	2
263.237	24
265.193	2
265.253	30
267.207	3
267.221	1
269.227	10
281.228	0
283.207	2
283.228	0
283.241	2
283.263	1
285.188	0
291.202	1
291.222	1
293.225	41
295.246	1
309.22	4
309.238	1
311.237	60
313.257	1
319.266	6
321.283	2
335.258	1
337.274	39
338.273	1
339.29	44
339.318	1
367.264	4
367.289	0
383.255	1
385.273	2
391.285	1
391.299	1
393.297	3
393.322	1
473.363	1
475.385	0
485.363	1
489.375	0
499.375	1
525.388	0
527.494	0
539.406	0
551.411	0
555.45	1
557.468	1
567.439	1
569.462	0
573.445	1
573.461	2
573.486	1
575.461	1
575.487	1
575.514	1
591.474	0
599.482	1
599.5	3
599.52	3
599.642	2
599.669	1
601.517	999
602.496	2
602.523	10
602.553	2
603.51	3
603.535	9
615.528	0
623.475	0
623.496	1
623.507	1
623.514	0
623.533	1
625.518	1
645.464	1
647.503	247
648.483	1
648.508	1
649.52	214
650.502	1
650.534	5
651.54	1
663.489	1
665.497	1
665.533	1
667.528	1
673.503	2
673.527	1
673.551	0
711.556	0
723.602	0
737.61	0
789.626	0
793.638	0
805.655	0
807.63	0
819.653	1
821.659	0
831.684	0
833.662	0
845.658	1
847.667	0
851.711	35
851.778	1
852.737	0
859.628	0
859.679	0
859.703	1
878.727	0
887.708	0
911.716	1
911.745	4
911.774	3
929.694	1
929.755	80
929.829	1
930.723	0
930.761	1
930.809	0
933.79	0
943.831	1
946.705	0
946.785	255
947.747	1
947.785	4
947.814	2
