Mass spectrum: TG 58:6; LC-ESI-QTOF; MS2
Name: TG 58:6
Class:  TAG
Formula: C61H106O6
Exact mass: 935.5129999999999
SMILES: CCCCCCCCCCCCCCCC(=O)OCC(COC(=O)CCCCC\C=C/C\C=C/C\C=C/C\C=C/C\C=C/CC)OC(=O)CCCCCCCCC\C=C/CCCCCCCC
InChI: InChI=1S/C61H106O6/c1-4-7-10-13-16-19-22-25-27-29-30-32-33-36-39-42-45-48-51-54-60(63)66-57-58(56-65-59(62)53-50-47-44-41-38-35-24-21-18-15-12-9-6-3)67-61(64)55-52-49-46-43-40-37-34-31-28-26-23-20-17-14-11-8-5-2/h7,10,16,19,25-28,30,32,36,39,58H,4-6,8-9,11-15,17-18,20-24,29,31,33-35,37-38,40-57H2,1-3H3/b10-7-,19-16-,27-25-,28-26-,32-30-,39-36-
Instrument: AB Sciex TripleTOF 5600+ system (Q-TOF) equipped with a DuoSpray ion source
Instrument type: LC-ESI-QTOF
Ms type: MS2
Ion mode: POSITIVE
Collision energy: 45V
Column name: Acquity UPLC Peptide BEH C18 column (50*2.1 mm; 1.7 um; 130A)(Waters Co.,Milford, MA, USA)
Retention time: 14.79873
Precursor type: [M+NH4]+
Precursor m/z: 952.8349
Intensity: 689
m/z	relative intensity
81.071	78
91.057	78
131.084	78
173.132	78
199.144	78
295.242	236
313.255	433
339.287	169
341.301	78
605.534	362
605.541	401
605.549	519
605.558	397
605.565	200
605.575	240
625.518	169
651.528	999
651.548	322
651.557	200
653.525	157
653.539	240
653.546	279
653.556	240
679.565	236
870.739	78
883.789	78
935.793	358
935.823	157
935.836	78
952.798	480
952.841	200
952.864	314
