Mass spectrum: TG 53:3; LC-ESI-QTOF; MS2
Name: TG 53:3
Class:  TAG
Formula: C56H102O6
Exact mass: 871.426
SMILES: CCCCCCCCCCCCCCCCC(=O)OCC(COC(=O)CCCCCCCC\C=C/C=C\CCCCC)OC(=O)CCCCCCCCC\C=C/CCCCCC
InChI: InChI=1S/C56H102O6/c1-4-7-10-13-16-19-22-25-28-31-34-37-40-43-46-49-55(58)61-52-53(51-60-54(57)48-45-42-39-36-33-30-27-24-21-18-15-12-9-6-3)62-56(59)50-47-44-41-38-35-32-29-26-23-20-17-14-11-8-5-2/h16,19-20,22-23,25,53H,4-15,17-18,21,24,26-52H2,1-3H3/b19-16-,23-20-,25-22-
Instrument: AB Sciex TripleTOF 5600+ system (Q-TOF) equipped with a DuoSpray ion source
Instrument type: LC-ESI-QTOF
Ms type: MS2
Ion mode: POSITIVE
Collision energy: 45V
Column name: Acquity UPLC Peptide BEH C18 column (50*2.1 mm; 1.7 um; 130A)(Waters Co.,Milford, MA, USA)
Retention time: 14.67305
Precursor type: [M+NH4]+
Precursor m/z: 888.7968
Intensity: 5716
m/z	relative intensity
81.071	19
83.085	5
85.102	6
95.085	28
97.102	9
107.086	6
109.101	17
111.115	7
121.102	9
123.117	9
135.118	10
149.131	7
151.149	6
163.149	7
165.163	5
175.147	8
177.162	8
191.178	6
233.229	5
237.218	5
245.227	12
247.24	9
251.235	9
263.237	30
265.245	10
265.256	33
268.995	6
279.268	6
311.28	3
313.271	9
319.262	10
325.266	7
327.287	15
337.271	6
339.298	19
353.314	5
403.392	2
456.98	2
561.484	9
561.509	7
565.519	8
566.518	13
567.528	10
573.481	19
573.517	8
575.5	176
575.53	18
577.512	12
587.491	20
587.518	13
587.679	6
589.519	999
590.522	11
590.565	7
591.533	480
592.534	20
601.493	59
601.5	70
601.521	440
603.512	44
603.531	248
603.556	55
604.54	9
615.529	116
615.562	21
617.519	10
617.53	7
617.537	11
617.551	30
617.571	25
629.551	16
829.722	3
843.708	15
843.744	9
843.765	9
853.723	3
853.775	5
871.765	27
871.786	8
871.811	9
888.704	5
888.733	16
888.743	17
888.764	76
888.808	132
888.84	13
