Mass spectrum: TG 52:2; LC-ESI-QTOF; MS2
Name: TG 52:2
Class:  TAG
Formula: C55H102O6
Exact mass: 859.415
SMILES: CCCCCCCCCCCCCCCC(=O)OCC(COC(=O)CCCCCCCCC\C=C/CCCCCC)OC(=O)CCCCCCCCC\C=C/CCCCCC
InChI: InChI=1S/C55H102O6/c1-4-7-10-13-16-19-22-25-27-30-33-36-39-42-45-48-54(57)60-51-52(50-59-53(56)47-44-41-38-35-32-29-24-21-18-15-12-9-6-3)61-55(58)49-46-43-40-37-34-31-28-26-23-20-17-14-11-8-5-2/h19-20,22-23,52H,4-18,21,24-51H2,1-3H3/b22-19-,23-20-
Instrument: AB Sciex TripleTOF 5600+ system (Q-TOF) equipped with a DuoSpray ion source
Instrument type: LC-ESI-QTOF
Ms type: MS2
Ion mode: POSITIVE
Collision energy: 45V
Column name: Acquity UPLC Peptide BEH C18 column (50*2.1 mm; 1.7 um; 130A)(Waters Co.,Milford, MA, USA)
Retention time: 14.80157
Precursor type: [M+NH4]+
Precursor m/z: 876.7985
Intensity: 419423
m/z	relative intensity
71.048	1
71.085	20
77.039	2
79.054	9
81.069	51
83.05	0
83.085	41
85.065	2
85.101	18
91.054	2
93.069	13
94.795	0
95.084	66
97.064	2
97.101	33
99.079	2
99.086	0
99.116	5
101.097	0
105.069	1
107.085	10
109.101	50
111.078	2
111.116	19
113.096	2
113.131	2
115.112	0
119.084	1
121.1	34
123.117	28
125.096	1
125.131	7
127.111	2
127.149	1
133.101	1
135.116	34
137.097	0
137.132	15
139.11	2
139.148	1
141.128	1
141.163	0
147.116	1
149.132	18
151.147	11
153.127	7
155.143	1
155.176	0
161.132	2
163.148	9
165.164	15
167.142	3
169.161	1
173.131	0
175.148	2
177.165	5
179.18	4
181.159	1
183.173	0
187.146	0
189.164	1
191.178	4
193.155	0
193.196	0
195.173	1
203.179	0
205.192	2
207.175	0
209.192	0
211.21	0
219.211	2
221.227	7
223.169	0
223.203	0
237.187	0
237.221	3
239.238	81
245.216	2
245.226	5
247.242	55
249.261	1
256.261	2
256.272	0
257.252	1
263.237	23
265.253	211
267.267	9
275.246	0
275.277	0
277.252	0
279.231	0
282.264	0
282.281	2
283.264	0
284.293	0
285.25	0
285.279	0
291.255	0
291.272	0
293.257	0
293.284	1
295.261	0
297.269	0
297.285	0
301.256	0
303.267	0
311.261	1
312.302	0
313.274	38
319.259	3
319.274	1
321.277	7
321.307	0
323.293	1
325.308	0
335.252	0
337.274	2
338.241	0
339.289	49
341.304	8
347.296	0
349.317	0
367.277	0
367.328	0
391.39	0
393.3	0
501.464	0
503.471	1
503.488	1
511.501	0
527.88	0
529.478	1
529.495	2
529.517	0
531.524	0
547.475	1
549.486	26
551.502	8
573.695	0
573.711	1
575.367	0
575.5	502
575.712	1
575.738	0
576.503	2
577.34	0
577.401	1
577.515	999
578.125	0
578.299	1
578.524	65
578.733	25
578.894	0
579.089	2
579.53	301
580.516	0
580.539	1
582.454	0
582.827	0
589.524	0
601.616	1
601.645	6
601.668	2
601.702	0
602.547	0
603.242	0
603.336	0
603.4	1
603.53	986
604.147	0
604.522	3
604.548	19
605.354	0
605.546	157
606.528	0
631.539	1
631.557	4
631.575	4
833.804	0
841.733	1
841.768	4
841.82	0
842.765	0
858.719	0
859.768	26
859.804	3
860.814	0
874.001	0
874.061	0
874.111	0
875.84	0
876.59	0
876.797	98
877.746	0
877.792	0
877.82	0
877.955	0
878.045	0
879.146	0
