Mass spectrum: TG 53:3; LC-ESI-QTOF; MS2
Name: TG 53:3
Class:  TAG
Formula: C56H102O6
Exact mass: 871.426
SMILES: CCCCCCCCCCCCCCCC(=O)OCC(COC(=O)CCCCCCC\C=C/CCCCCCCCC)OC(=O)CCCCCCCC\C=C/C=C\CCCCC
InChI: InChI=1S/C56H102O6/c1-4-7-10-13-16-19-22-25-27-29-31-34-37-40-43-46-49-55(58)61-52-53(51-60-54(57)48-45-42-39-36-33-30-24-21-18-15-12-9-6-3)62-56(59)50-47-44-41-38-35-32-28-26-23-20-17-14-11-8-5-2/h17,20,23,26-27,29,53H,4-16,18-19,21-22,24-25,28,30-52H2,1-3H3/b20-17-,26-23-,29-27-
Instrument: AB Sciex TripleTOF 5600+ system (Q-TOF) equipped with a DuoSpray ion source
Instrument type: LC-ESI-QTOF
Ms type: MS2
Ion mode: POSITIVE
Collision energy: 45V
Column name: Acquity UPLC Peptide BEH C18 column (50*2.1 mm; 1.7 um; 130A)(Waters Co.,Milford, MA, USA)
Retention time: 14.66131
Precursor type: [M+NH4]+
Precursor m/z: 888.8029
Intensity: 9299
m/z	relative intensity
71.086	13
81.065	16
81.073	18
83.085	20
93.071	14
95.084	48
97.1	22
109.101	44
111.119	18
121.102	23
123.114	17
135.114	20
161.134	13
175.15	20
239.23	13
245.227	14
247.241	15
251.241	16
253.259	19
263.234	56
263.246	20
265.252	40
277.25	3
279.271	19
295.264	3
301.245	7
313.278	12
319.259	13
327.288	16
335.281	3
337.283	16
339.291	46
341.303	4
347.289	3
353.321	8
552.508	10
553.51	12
561.491	19
563.524	9
573.489	66
575.503	356
575.543	28
577.516	42
587.504	101
587.524	63
589.522	893
589.68	10
591.535	999
593.553	12
601.521	630
601.6	10
603.525	91
603.543	131
605.559	20
615.51	51
615.538	296
617.549	42
617.572	20
629.564	24
715.681	3
829.707	11
829.754	9
830.738	21
831.688	7
831.728	97
831.77	38
853.763	7
856.755	3
871.769	40
871.802	30
888.593	5
888.697	5
888.804	186
888.849	32
