Mass spectrum: TG 51:2; LC-ESI-QTOF; MS2
Name: TG 51:2
Class:  TAG
Formula: C54H100O6
Exact mass: 845.3879999999999
SMILES: CCCCCCCCCCCCCCC(=O)OCC(COC(=O)CCCCCCCCC\C=C/CCCCCC)OC(=O)CCCCCCCCC\C=C/CCCCCC
InChI: InChI=1S/C54H100O6/c1-4-7-10-13-16-19-22-25-27-29-32-35-38-41-44-47-53(56)59-50-51(49-58-52(55)46-43-40-37-34-31-24-21-18-15-12-9-6-3)60-54(57)48-45-42-39-36-33-30-28-26-23-20-17-14-11-8-5-2/h19-20,22-23,51H,4-18,21,24-50H2,1-3H3/b22-19-,23-20-
Instrument: AB Sciex TripleTOF 5600+ system (Q-TOF) equipped with a DuoSpray ion source
Instrument type: LC-ESI-QTOF
Ms type: MS2
Ion mode: POSITIVE
Collision energy: 45V
Column name: Acquity UPLC Peptide BEH C18 column (50*2.1 mm; 1.7 um; 130A)(Waters Co.,Milford, MA, USA)
Retention time: 14.6472
Precursor type: [M+NH4]+
Precursor m/z: 862.785
Intensity: 105010
m/z	relative intensity
71.049	1
71.085	15
77.038	1
79.053	7
81.07	37
83.085	21
85.065	2
85.1	15
91.053	2
93.069	8
95.085	52
97.064	2
97.1	21
99.08	3
99.116	3
105.069	2
107.084	4
109.101	34
111.081	2
111.116	10
113.094	1
113.131	2
119.084	2
121.101	18
123.116	24
125.095	1
125.131	3
127.111	2
127.149	1
133.102	4
135.117	14
137.132	13
139.109	1
139.15	1
141.127	1
141.164	0
147.116	4
149.132	8
151.147	7
153.126	2
161.132	6
163.147	6
165.155	2
165.165	4
167.144	1
175.148	6
177.162	3
177.173	1
179.178	3
179.189	0
181.156	0
189.167	2
191.18	2
193.198	1
203.177	0
205.194	1
207.175	1
207.21	0
217.193	0
219.205	1
221.228	2
225.222	9
233.226	5
235.237	1
235.248	1
237.219	2
237.231	1
239.236	38
245.226	22
247.243	11
249.183	0
251.237	15
253.251	25
256.258	1
256.269	1
263.203	1
263.237	64
265.252	38
267.253	1
267.272	2
270.279	1
271.269	0
277.255	0
279.229	0
279.273	1
282.277	0
283.243	0
295.263	0
297.285	0
299.256	4
301.252	1
307.275	0
309.277	0
311.244	0
311.26	0
311.298	0
312.3	0
313.273	32
319.26	10
321.271	0
321.29	0
325.273	5
327.287	18
335.258	0
337.274	6
337.296	0
339.288	18
341.294	0
341.309	1
355.33	0
367.289	0
465.388	0
501.467	0
515.47	1
515.495	0
535.476	1
537.489	2
547.465	6
547.481	3
549.487	25
551.494	4
551.511	3
561.489	119
561.741	1
561.768	0
563.501	724
564.497	3
564.517	1
565.386	0
565.517	791
566.503	1
566.528	3
573.701	3
573.726	0
575.501	825
576.509	3
577.518	386
578.506	1
578.54	2
579.529	2
579.55	0
587.67	1
587.69	1
587.715	0
589.516	999
589.578	0
590.527	5
591.534	88
592.539	1
601.647	1
603.532	302
604.541	1
605.537	1
605.56	1
617.511	0
617.552	11
617.571	2
827.688	0
827.72	1
827.741	2
827.762	2
827.816	0
843.112	0
845.747	11
845.779	4
860.068	0
860.135	0
862.784	131
863.794	0
