Mass spectrum: TG 60:11; LC-ESI-QTOF; MS2
Name: TG 60:11
Class:  TAG
Formula: C63H100O6
Exact mass: 953.487
SMILES: CCCCCC\C=C/CCCCCCCCCC(=O)OCC(COC(=O)CCCCC\C=C/C\C=C/C\C=C/C\C=C/C\C=C/CC)OC(=O)CCC\C=C/C\C=C/C\C=C/C\C=C/C\C=C/CC
InChI: InChI=1S/C63H100O6/c1-4-7-10-13-16-19-22-25-28-30-31-33-35-38-41-44-47-50-53-56-62(65)68-59-60(58-67-61(64)55-52-49-46-43-40-37-34-27-24-21-18-15-12-9-6-3)69-63(66)57-54-51-48-45-42-39-36-32-29-26-23-20-17-14-11-8-5-2/h7-8,10-11,16-17,19-21,24-26,28-29,31,33,36,38-39,41,45,48,60H,4-6,9,12-15,18,22-23,27,30,32,34-35,37,40,42-44,46-47,49-59H2,1-3H3/b10-7-,11-8-,19-16-,20-17-,24-21-,28-25-,29-26-,33-31-,39-36-,41-38-,48-45-
Instrument: AB Sciex TripleTOF 5600+ system (Q-TOF) equipped with a DuoSpray ion source
Instrument type: LC-ESI-QTOF
Ms type: MS2
Ion mode: POSITIVE
Collision energy: 45V
Column name: Acquity UPLC Peptide BEH C18 column (50*2.1 mm; 1.7 um; 130A)(Waters Co.,Milford, MA, USA)
Retention time: 14.10774
Precursor type: [M+NH4]+
Precursor m/z: 970.7844
Intensity: 394
m/z	relative intensity
119.084	115
143.085	115
167.081	999
213.143	115
311.233	115
313.298	132
390.998	132
587.515	289
599.515	190
623.51	404
625.505	289
625.53	346
697.495	248
825.71	115
826.699	231
888.737	132
902.715	115
953.77	202
970.718	231
970.789	526
