Mass spectrum: TG 50:2; LC-ESI-QTOF; MS2
Name: TG 50:2
Class:  TAG
Formula: C53H98O6
Exact mass: 831.361
SMILES: CCCCCCCCCCCCCCCC(=O)OCC(COC(=O)CCCCCCCC\C=C/C=C\CCCCC)OC(=O)CCCCCCCCCCCCCCC
InChI: InChI=1S/C53H98O6/c1-4-7-10-13-16-19-22-25-26-29-31-34-37-40-43-46-52(55)58-49-50(59-53(56)47-44-41-38-35-32-28-24-21-18-15-12-9-6-3)48-57-51(54)45-42-39-36-33-30-27-23-20-17-14-11-8-5-2/h16,19,22,25,50H,4-15,17-18,20-21,23-24,26-49H2,1-3H3/b19-16-,25-22-
Instrument: AB Sciex TripleTOF 5600+ system (Q-TOF) equipped with a DuoSpray ion source
Instrument type: LC-ESI-QTOF
Ms type: MS2
Ion mode: POSITIVE
Collision energy: 45V
Column name: Acquity UPLC Peptide BEH C18 column (50*2.1 mm; 1.7 um; 130A)(Waters Co.,Milford, MA, USA)
Retention time: 14.48443
Precursor type: [M+NH4]+
Precursor m/z: 848.7687
Intensity: 383447
m/z	relative intensity
71.047	0
71.085	21
77.038	2
79.053	8
81.069	51
83.049	0
83.085	29
85.064	2
85.101	22
91.054	4
93.07	11
95.085	59
97.063	2
97.101	21
99.078	3
99.116	5
105.069	3
107.086	8
109.1	42
111.079	2
111.116	8
113.095	1
113.132	2
119.085	4
121.101	19
123.116	29
125.094	1
125.133	5
127.112	1
127.148	1
131.084	0
133.1	5
135.116	16
137.098	0
137.132	15
139.11	1
139.146	1
141.125	1
141.164	1
145.102	0
147.117	5
149.132	8
151.11	0
151.148	8
153.127	2
155.144	1
155.179	0
159.116	0
161.131	8
163.147	10
165.128	0
165.162	7
167.142	1
169.157	0
169.196	0
171.117	0
173.133	0
175.148	9
177.163	4
179.141	0
179.177	3
181.159	1
187.145	0
189.164	5
191.176	1
191.187	0
193.157	1
193.193	0
195.174	0
201.162	0
203.178	2
205.2	0
207.175	1
211.205	3
217.197	0
219.21	7
221.196	0
221.225	9
235.168	0
237.221	19
239.236	106
245.187	0
245.226	28
247.231	1
247.243	7
249.187	0
256.261	4
257.247	1
261.218	0
263.237	87
265.253	26
267.27	1
275.26	0
277.215	0
279.23	0
280.267	0
282.284	0
283.24	0
285.244	1
293.239	0
293.251	0
295.254	0
295.272	0
297.271	0
297.286	0
299.298	0
301.252	1
307.26	0
311.256	6
312.28	0
312.319	0
313.273	56
319.263	16
321.28	0
323.299	0
335.257	1
335.274	0
337.271	7
339.29	7
341.29	0
341.309	0
367.276	0
451.378	0
465.388	0
465.412	0
483.455	0
501.448	0
501.468	3
519.479	0
521.451	0
523.467	0
538.497	0
545.435	0
547.469	32
547.49	5
547.525	0
547.767	0
547.785	0
549.486	470
549.758	0
550.49	0
551.388	1
551.502	765
551.934	0
552.495	1
552.527	0
557.491	0
573.654	0
573.671	0
573.705	7
573.758	0
574.475	0
574.556	0
575.176	0
575.358	0
575.385	1
575.501	999
576.323	0
576.504	84
576.526	26
576.554	2
576.705	0
577.132	0
577.394	0
577.517	401
578.512	0
579.521	0
589.533	0
603.535	78
605.548	1
605.57	0
813.679	0
813.709	0
813.746	3
813.789	0
831.716	1
831.742	7
831.77	3
831.795	0
846.077	0
846.132	0
847.617	0
848.693	0
848.77	82
848.849	0
849.777	0
