Mass spectrum: TG 54:0; LC-ESI-QTOF; MS2
Name: TG 54:0
Class:  TAG
Formula: C57H110O6
Exact mass: 891.501
SMILES: CCCCCCCCCCCCCCCCCCCCCC(=O)OCC(COC(=O)CCCCCCCCCCCCCCC)OC(=O)CCCCCCCCCCCCCCC
InChI: InChI=1S/C57H110O6/c1-4-7-10-13-16-19-22-25-26-27-28-29-30-33-35-38-41-44-47-50-56(59)62-53-54(63-57(60)51-48-45-42-39-36-32-24-21-18-15-12-9-6-3)52-61-55(58)49-46-43-40-37-34-31-23-20-17-14-11-8-5-2/h54H,4-53H2,1-3H3
Instrument: AB Sciex TripleTOF 5600+ system (Q-TOF) equipped with a DuoSpray ion source
Instrument type: LC-ESI-QTOF
Ms type: MS2
Ion mode: POSITIVE
Collision energy: 45V
Column name: Acquity UPLC Peptide BEH C18 column (50*2.1 mm; 1.7 um; 130A)(Waters Co.,Milford, MA, USA)
Retention time: 16.07671
Precursor type: [M+NH4]+
Precursor m/z: 908.8577
Intensity: 448
m/z	relative intensity
95.087	39
97.101	23
226.992	31
235.046	27
239.236	49
267.271	31
291.114	15
292.965	15
347.178	39
396.898	15
441.293	23
523.469	31
551.499	330
551.519	185
579.529	446
579.552	105
603.536	26
607.548	464
607.574	642
607.608	48
608.588	26
625.514	34
626.528	83
635.571	359
635.6	999
647.467	145
647.501	39
663.637	23
908.747	196
908.777	372
908.846	186
