Mass spectrum: TG 50:0; LC-ESI-QTOF; MS2
Name: TG 50:0
Class:  TAG
Formula: C53H102O6
Exact mass: 835.393
SMILES: CCCCCCCCCCCCCCCCCC(=O)OCC(COC(=O)CCCCCCCCCCCCCCC)OC(=O)CCCCCCCCCCCCCCC
InChI: InChI=1S/C53H102O6/c1-4-7-10-13-16-19-22-25-26-29-31-34-37-40-43-46-52(55)58-49-50(59-53(56)47-44-41-38-35-32-28-24-21-18-15-12-9-6-3)48-57-51(54)45-42-39-36-33-30-27-23-20-17-14-11-8-5-2/h50H,4-49H2,1-3H3
Instrument: AB Sciex TripleTOF 5600+ system (Q-TOF) equipped with a DuoSpray ion source
Instrument type: LC-ESI-QTOF
Ms type: MS2
Ion mode: POSITIVE
Collision energy: 45V
Column name: Acquity UPLC Peptide BEH C18 column (50*2.1 mm; 1.7 um; 130A)(Waters Co.,Milford, MA, USA)
Retention time: 15.12503
Precursor type: [M+NH4]+
Precursor m/z: 852.7981
Intensity: 55727
m/z	relative intensity
71.085	15
79.054	0
81.069	15
83.084	13
85.069	0
85.1	15
93.068	0
95.085	25
97.1	9
99.116	3
109.1	17
111.116	4
113.132	2
123.116	10
125.131	3
127.147	1
137.13	5
137.14	1
139.145	1
141.166	0
151.147	2
155.177	0
165.164	3
179.178	0
193.198	0
211.203	0
221.226	4
239.237	59
249.256	3
256.262	2
257.247	0
267.267	20
284.295	1
285.286	0
292.962	0
295.26	0
297.278	0
299.294	0
303.293	0
313.274	11
323.294	0
325.315	0
327.072	0
341.303	5
496.276	0
523.471	2
523.499	0
537.499	0
549.753	0
549.775	1
549.804	1
551.369	1
551.502	710
552.065	0
552.49	2
552.512	3
565.501	0
565.522	0
565.541	0
577.511	0
577.674	0
577.717	4
577.737	1
577.779	0
578.516	0
578.538	1
579.305	0
579.422	0
579.531	999
579.988	0
580.112	0
580.376	0
580.533	5
580.557	1
580.567	0
593.546	0
607.565	4
607.591	1
835.779	0
835.876	0
850.129	0
851.728	0
851.978	0
852.581	0
852.69	0
852.736	1
852.775	15
852.803	59
853.755	0
