Mass spectrum: TG 46:1; LC-ESI-QTOF; MS2
Name: TG 46:1
Class:  TAG
Formula: C49H92O6
Exact mass: 777.269
SMILES: CCCCCCCCCCCCCCCC(=O)OC(COC(=O)CCCCCCCCCCC)COC(=O)CCCCCCCCC\C=C/CCCCCC
InChI: InChI=1S/C49H92O6/c1-4-7-10-13-16-19-21-23-24-26-27-30-33-36-39-42-48(51)54-45-46(44-53-47(50)41-38-35-32-29-18-15-12-9-6-3)55-49(52)43-40-37-34-31-28-25-22-20-17-14-11-8-5-2/h19,21,46H,4-18,20,22-45H2,1-3H3/b21-19-
Instrument: AB Sciex TripleTOF 5600+ system (Q-TOF) equipped with a DuoSpray ion source
Instrument type: LC-ESI-QTOF
Ms type: MS2
Ion mode: POSITIVE
Collision energy: 45V
Column name: Acquity UPLC Peptide BEH C18 column (50*2.1 mm; 1.7 um; 130A)(Waters Co.,Milford, MA, USA)
Retention time: 14.10718
Precursor type: [M+NH4]+
Precursor m/z: 794.7202
Intensity: 884
m/z	relative intensity
95.087	74
97.101	27
109.102	27
137.138	37
186.997	37
239.239	37
268.997	40
289.061	18
325.211	46
326.228	21
368.929	18
391.009	18
417.168	55
495.414	65
495.433	113
495.459	85
521.454	999
521.481	142
523.467	398
523.497	46
523.533	21
549.484	655
549.51	114
551.482	46
551.501	74
577.51	132
577.533	47
693.559	30
694.549	55
695.531	66
695.55	123
695.57	190
695.599	95
777.692	33
794.717	55
794.745	55
