Mass spectrum: TG 51:2; LC-ESI-QTOF; MS2
Name: TG 51:2
Class:  TAG
Formula: C54H100O6
Exact mass: 845.3879999999999
SMILES: CCCCCCCCCCCCCCC(=O)OCC(COC(=O)CCCCCCCCC\C=C/CCCCCC)OC(=O)CCCCCCCCC\C=C/CCCCCC
InChI: InChI=1S/C54H100O6/c1-4-7-10-13-16-19-22-25-27-29-32-35-38-41-44-47-53(56)59-50-51(49-58-52(55)46-43-40-37-34-31-24-21-18-15-12-9-6-3)60-54(57)48-45-42-39-36-33-30-28-26-23-20-17-14-11-8-5-2/h19-20,22-23,51H,4-18,21,24-50H2,1-3H3/b22-19-,23-20-
Instrument: AB Sciex TripleTOF 5600+ system (Q-TOF) equipped with a DuoSpray ion source
Instrument type: LC-ESI-QTOF
Ms type: MS2
Ion mode: POSITIVE
Collision energy: 45V
Column name: Acquity UPLC Peptide BEH C18 column (50*2.1 mm; 1.7 um; 130A)(Waters Co.,Milford, MA, USA)
Retention time: 14.62273
Precursor type: [M+NH4]+
Precursor m/z: 862.7836
Intensity: 18967
m/z	relative intensity
71.085	10
79.053	6
81.07	30
83.085	18
85.101	8
93.067	5
95.084	31
97.1	15
99.116	3
107.085	5
109.101	22
111.08	3
111.112	3
111.118	7
121.101	18
123.115	13
125.135	3
133.103	2
135.117	13
137.133	9
149.133	10
151.149	5
161.131	3
163.146	5
165.162	5
175.145	3
221.223	3
225.221	9
233.221	4
233.235	2
237.222	5
239.236	31
245.227	9
247.243	12
251.238	19
253.254	13
263.235	44
265.253	53
279.274	2
282.279	1
283.264	0
293.245	0
299.256	3
311.257	1
313.259	4
313.277	18
319.253	2
319.269	3
321.281	2
323.299	0
325.268	2
325.284	2
327.277	3
327.292	7
335.256	1
337.277	2
339.289	17
341.309	2
353.304	1
515.49	3
535.463	2
535.492	1
537.488	2
538.475	1
538.497	3
539.478	1
539.507	2
547.473	15
547.503	1
549.461	6
549.487	64
550.489	1
551.493	7
551.516	5
553.518	1
561.487	70
561.751	4
563.504	999
563.604	1
563.731	1
564.505	14
565.518	445
566.498	1
566.528	1
566.544	1
573.697	2
575.501	526
575.712	1
576.503	2
577.519	494
578.529	5
579.516	5
579.56	1
587.685	2
589.518	953
590.528	5
591.529	134
591.554	39
592.554	1
601.632	1
603.536	315
604.523	1
604.55	1
605.55	4
617.544	36
827.71	1
827.744	2
827.789	0
838.691	0
838.738	1
838.816	0
845.713	1
845.751	10
845.781	6
860.032	0
860.109	0
862.72	2
862.787	179
863.778	1
