Mass spectrum: TG 51:4; LC-ESI-QTOF; MS2
Name: TG 51:4
Class:  TAG
Formula: C54H96O6
Exact mass: 841.356
SMILES: CCCCCCCCCCCCCCC(=O)OCC(COC(=O)CCCCCCCC\C=C/C=C\CCCCC)OC(=O)CCCCCCCC\C=C/C=C\CCCCC
InChI: InChI=1S/C54H96O6/c1-4-7-10-13-16-19-22-25-27-29-32-35-38-41-44-47-53(56)59-50-51(49-58-52(55)46-43-40-37-34-31-24-21-18-15-12-9-6-3)60-54(57)48-45-42-39-36-33-30-28-26-23-20-17-14-11-8-5-2/h16-17,19-20,22-23,25-26,51H,4-15,18,21,24,27-50H2,1-3H3/b19-16-,20-17-,25-22-,26-23-
Instrument: AB Sciex TripleTOF 5600+ system (Q-TOF) equipped with a DuoSpray ion source
Instrument type: LC-ESI-QTOF
Ms type: MS2
Ion mode: POSITIVE
Collision energy: 45V
Column name: Acquity UPLC Peptide BEH C18 column (50*2.1 mm; 1.7 um; 130A)(Waters Co.,Milford, MA, USA)
Retention time: 14.10787
Precursor type: [M+NH4]+
Precursor m/z: 858.7579
Intensity: 2203
m/z	relative intensity
81.07	26
93.068	10
95.086	17
109.101	16
225.221	18
245.225	12
263.236	51
265.256	12
283.252	4
297.234	2
299.263	20
301.274	2
313.283	4
317.248	2
319.263	4
325.281	4
337.277	34
339.29	15
341.299	8
345.286	4
390.999	8
433.007	2
472.988	4
495.437	23
517.41	11
521.464	27
523.451	8
523.474	27
543.435	40
545.449	23
549.471	21
549.502	32
551.501	8
557.459	13
559.447	21
559.469	39
559.484	14
559.493	11
561.487	634
563.482	17
563.51	31
571.452	8
571.475	39
573.484	104
573.513	14
575.496	35
575.527	14
577.499	8
577.536	11
585.488	27
587.476	19
587.508	82
599.505	316
601.497	12
601.534	17
603.524	26
603.537	8
603.547	17
773.661	7
775.687	4
776.676	15
799.678	999
799.731	43
799.761	8
800.667	7
823.696	7
841.699	16
841.731	68
841.768	16
858.744	52
858.769	33
858.785	20
