Mass spectrum: TG 56:3; LC-ESI-QTOF; MS2
Name: TG 56:3
Class:  TAG
Formula: C59H108O6
Exact mass: 913.5070000000001
SMILES: CCCCCCCCCCCCCCCCCC(=O)OCC(COC(=O)CCCCCCCCC\C=C/CCCCCCCC)OC(=O)CCCCCCCC\C=C/C=C\CCCCC
InChI: InChI=1S/C59H108O6/c1-4-7-10-13-16-19-22-25-28-29-32-34-37-40-43-46-49-52-58(61)64-55-56(65-59(62)53-50-47-44-41-38-35-31-27-24-21-18-15-12-9-6-3)54-63-57(60)51-48-45-42-39-36-33-30-26-23-20-17-14-11-8-5-2/h18,21,24-25,27-28,56H,4-17,19-20,22-23,26,29-55H2,1-3H3/b21-18-,27-24-,28-25-
Instrument: AB Sciex TripleTOF 5600+ system (Q-TOF) equipped with a DuoSpray ion source
Instrument type: LC-ESI-QTOF
Ms type: MS2
Ion mode: POSITIVE
Collision energy: 45V
Column name: Acquity UPLC Peptide BEH C18 column (50*2.1 mm; 1.7 um; 130A)(Waters Co.,Milford, MA, USA)
Retention time: 15.22979
Precursor type: [M+NH4]+
Precursor m/z: 930.8489
Intensity: 14733
m/z	relative intensity
71.088	0
79.054	1
81.069	9
83.084	7
85.101	1
93.068	1
95.084	8
95.091	1
97.101	6
107.083	1
109.099	6
111.11	1
111.117	2
121.1	6
123.116	3
125.133	1
135.115	5
137.13	1
149.13	2
151.147	2
153.124	0
163.149	2
165.166	1
167.146	0
177.158	0
179.178	1
191.175	1
193.193	0
203.18	0
205.197	1
219.207	1
239.237	1
245.225	1
247.241	9
263.237	4
265.253	35
267.259	0
275.274	2
282.276	0
288.242	0
291.271	0
293.285	17
295.311	0
303.301	0
313.265	0
313.284	0
319.261	1
321.277	1
321.316	1
321.331	0
323.292	0
331.306	0
335.26	0
337.278	1
339.29	12
341.29	0
341.308	1
342.306	0
343.312	0
349.3	0
349.319	1
365.295	0
367.323	8
369.342	0
377.338	0
395.346	0
395.369	0
529.498	0
547.468	0
547.485	0
557.532	1
573.49	0
575.502	43
576.509	0
577.502	2
577.524	2
594.545	0
601.517	20
601.641	1
601.662	0
602.516	0
603.535	579
604.53	2
604.553	2
605.553	10
607.557	0
607.578	0
608.561	2
608.592	0
609.556	0
609.575	1
617.542	0
627.527	1
627.594	0
628.521	0
628.544	0
629.549	56
629.609	1
629.629	0
630.546	0
630.611	0
631.413	0
631.566	999
632.534	0
632.554	2
632.574	4
632.59	1
632.801	0
633.582	79
634.577	0
657.585	39
659.588	8
659.611	7
671.589	0
675.55	0
675.622	0
676.966	0
685.61	0
687.624	0
787.671	0
801.701	0
807.603	0
815.881	0
867.772	0
884.796	0
895.773	0
895.811	1
895.848	0
909.787	0
913.782	2
913.818	18
913.846	7
913.884	1
927.905	0
927.981	0
930.756	0
930.847	139
931.836	1
931.867	0
931.887	0
