Mass spectrum: TG 52:2; LC-ESI-QTOF; MS2
Name: TG 52:2
Class:  TAG
Formula: C55H102O6
Exact mass: 859.415
SMILES: CCCCCCCCCCCCCCCC(=O)OCC(COC(=O)CCCCCCCCC\C=C/CCCCCC)OC(=O)CCCCCCCCC\C=C/CCCCCC
InChI: InChI=1S/C55H102O6/c1-4-7-10-13-16-19-22-25-27-30-33-36-39-42-45-48-54(57)60-51-52(50-59-53(56)47-44-41-38-35-32-29-24-21-18-15-12-9-6-3)61-55(58)49-46-43-40-37-34-31-28-26-23-20-17-14-11-8-5-2/h19-20,22-23,52H,4-18,21,24-51H2,1-3H3/b22-19-,23-20-
Instrument: AB Sciex TripleTOF 5600+ system (Q-TOF) equipped with a DuoSpray ion source
Instrument type: LC-ESI-QTOF
Ms type: MS2
Ion mode: POSITIVE
Collision energy: 45V
Column name: Acquity UPLC Peptide BEH C18 column (50*2.1 mm; 1.7 um; 130A)(Waters Co.,Milford, MA, USA)
Retention time: 14.81476
Precursor type: [M+NH4]+
Precursor m/z: 876.8007
Intensity: 64821
m/z	relative intensity
71.049	0
71.085	4
77.035	0
79.053	2
81.069	13
83.084	12
85.063	0
85.101	5
93.068	2
93.078	0
95.085	17
97.065	0
97.1	8
99.081	0
99.117	1
107.086	3
109.1	12
111.078	1
111.116	5
113.132	0
121.1	9
123.116	5
125.131	1
127.11	0
135.115	9
137.13	3
139.11	1
139.148	0
141.123	0
149.132	5
151.146	3
153.127	1
155.142	0
163.147	3
165.164	4
167.143	0
169.156	0
177.163	1
179.18	1
181.159	0
183.173	0
191.177	1
195.174	0
205.188	0
205.201	0
221.227	2
237.224	0
239.237	25
240.241	0
247.241	18
256.258	0
257.246	0
263.239	0
265.252	67
266.25	0
282.282	0
283.265	0
293.242	0
293.281	0
295.265	0
297.278	0
303.263	0
311.26	0
313.274	12
313.301	0
314.291	0
321.277	3
323.289	0
337.269	0
338.229	0
339.29	16
340.29	0
341.301	0
367.291	0
393.299	0
503.466	0
503.494	0
511.481	0
529.469	0
529.492	0
529.519	0
549.468	2
549.489	5
549.521	0
551.504	9
551.546	0
552.505	0
563.495	0
575.482	1
575.501	4
575.523	2
575.708	2
575.734	2
576.505	0
576.605	0
577.063	0
577.392	0
577.518	999
578.141	0
578.413	0
578.522	103
578.696	0
579.502	0
579.526	1
579.547	1
580.607	0
582.326	0
601.65	2
603.248	0
603.533	702
604.172	0
604.54	32
605.529	1
631.551	0
631.575	0
719.912	0
743.678	0
841.749	1
841.768	0
841.778	0
841.793	0
850.785	0
859.726	0
859.773	8
859.804	2
874.035	0
874.078	0
876.651	0
876.734	0
876.798	76
876.902	0
877.777	1
877.804	3
877.834	0
881.737	0
