Mass spectrum: TG 52:5; LC-ESI-QTOF; MS2
Name: TG 52:5
Class:  TAG
Formula: C55H96O6
Exact mass: 853.367
SMILES: CCCCCCCCCCCCCCCC(=O)OCC(COC(=O)CCCCCCC\C=C/C=C\C=C/C=C\CC)OC(=O)CCCCCCCCC\C=C/CCCCCC
InChI: InChI=1S/C55H96O6/c1-4-7-10-13-16-19-22-25-27-30-33-36-39-42-45-48-54(57)60-51-52(50-59-53(56)47-44-41-38-35-32-29-24-21-18-15-12-9-6-3)61-55(58)49-46-43-40-37-34-31-28-26-23-20-17-14-11-8-5-2/h7,10,13,16,19-20,22-23,25,27,52H,4-6,8-9,11-12,14-15,17-18,21,24,26,28-51H2,1-3H3/b10-7-,16-13-,22-19-,23-20-,27-25-
Instrument: AB Sciex TripleTOF 5600+ system (Q-TOF) equipped with a DuoSpray ion source
Instrument type: LC-ESI-QTOF
Ms type: MS2
Ion mode: POSITIVE
Collision energy: 45V
Column name: Acquity UPLC Peptide BEH C18 column (50*2.1 mm; 1.7 um; 130A)(Waters Co.,Milford, MA, USA)
Retention time: 14.07564
Precursor type: [M+NH4]+
Precursor m/z: 870.7525
Intensity: 7840
m/z	relative intensity
81.07	41
93.07	23
95.085	58
105.07	17
107.086	19
109.101	26
119.086	16
121.099	22
123.117	24
135.116	23
149.133	16
159.117	15
161.131	30
163.149	34
173.133	19
175.146	27
177.159	15
187.147	16
239.237	47
241.197	26
243.21	76
245.225	16
259.206	34
261.221	91
263.235	67
265.257	16
277.225	5
285.246	5
287.242	5
295.246	8
301.254	5
311.258	12
313.271	158
317.249	24
319.267	16
333.254	5
335.262	11
337.271	57
339.273	9
339.297	20
505.441	11
523.439	8
523.466	44
523.48	23
523.491	24
549.485	77
549.513	13
551.487	11
551.512	9
571.469	118
571.495	18
573.487	593
574.489	12
575.504	999
576.515	16
577.488	26
577.512	163
577.53	111
577.565	11
597.484	874
597.506	149
598.476	10
598.494	11
598.51	12
599.509	38
601.518	9
603.518	10
625.492	8
625.528	30
769.643	4
835.682	17
835.714	17
835.741	9
853.668	6
853.715	110
853.735	31
853.746	59
853.793	15
854.701	4
861.667	5
861.734	5
870.739	213
870.775	74
870.803	26
871.748	6
