Mass spectrum: ChE 18:2; LC-ESI-QTOF; MS2
Name: ChE 18:2
Class:  CE
Formula: C45H76O2
Exact mass: 649.1010000000001
SMILES: CCCCC\C=C/C\C=C/CCCCCCCC(=O)O[C@H]1CC[C@]2(C)[C@H]3CC[C@]4(C)[C@H](CC[C@H]4[C@@H]3CC=C2C1)[C@H](C)CCCC(C)C
InChI: InChI=1S/C45H76O2/c1-7-8-9-10-11-12-13-14-15-16-17-18-19-20-21-25-43(46)47-38-30-32-44(5)37(34-38)26-27-39-41-29-28-40(36(4)24-22-23-35(2)3)45(41,6)33-31-42(39)44/h11-12,14-15,26,35-36,38-42H,7-10,13,16-25,27-34H2,1-6H3/b12-11-,15-14-/t36-,38+,39+,40-,41+,42+,44+,45-/m1/s1
Instrument: AB Sciex TripleTOF 5600+ system (Q-TOF) equipped with a DuoSpray ion source
Instrument type: LC-ESI-QTOF
Ms type: MS2
Ion mode: POSITIVE
Collision energy: 45V
Column name: Acquity UPLC Peptide BEH C18 column (50*2.1 mm; 1.7 um; 130A)(Waters Co.,Milford, MA, USA)
Retention time: 14.53587
Precursor type: [M+NH4]+
Precursor m/z: 666.6165
Intensity: 111217
m/z	relative intensity
71.084	11
77.037	2
79.053	7
81.069	34
83.084	22
85.1	9
91.053	2
93.068	14
95.085	45
97.1	17
99.114	1
105.068	17
107.084	19
109.1	53
111.116	19
117.069	1
119.084	17
121.101	26
123.116	29
125.133	9
127.148	2
131.082	2
133.1	18
135.116	76
137.131	13
139.147	4
145.099	5
147.116	119
149.132	44
151.147	13
153.163	1
159.117	12
161.131	160
163.148	24
165.163	18
173.132	12
175.147	108
177.162	16
179.179	23
187.147	18
189.163	61
191.179	9
193.195	23
201.163	39
203.179	60
205.194	24
207.208	9
207.224	1
215.178	77
217.194	33
219.21	35
221.224	6
229.195	49
231.209	9
233.226	64
235.242	11
241.194	4
243.211	88
245.225	17
247.24	41
249.258	3
255.21	3
257.226	59
259.242	73
261.256	20
271.237	5
271.25	2
273.256	43
275.269	2
285.254	8
285.267	3
286.381	0
287.273	62
289.287	0
299.272	9
301.291	2
301.306	0
313.287	17
327.303	4
340.307	0
341.315	0
341.334	1
361.315	0
367.332	0
368.201	4
368.221	1
369.019	0
369.256	1
369.35	999
369.81	0
370.033	0
370.333	0
372.234	0
373.303	0
483.415	0
649.441	0
649.559	0
649.623	0
666.435	0
666.479	0
666.612	0
