Mass spectrum: TG 48:4; LC-ESI-QTOF; MS2
Name: TG 48:4
Class:  TAG
Formula: C51H90O6
Exact mass: 799.275
SMILES: CCCCCCCCCCCC(=O)OCC(COC(=O)CCCCCCCC\C=C/C=C\CCCCC)OC(=O)CCCCCCCC\C=C/C=C\CCCCC
InChI: InChI=1S/C51H90O6/c1-4-7-10-13-16-19-21-23-25-27-29-32-35-38-41-44-50(53)56-47-48(46-55-49(52)43-40-37-34-31-18-15-12-9-6-3)57-51(54)45-42-39-36-33-30-28-26-24-22-20-17-14-11-8-5-2/h16-17,19-24,48H,4-15,18,25-47H2,1-3H3/b19-16-,20-17-,23-21-,24-22-
Instrument: AB Sciex TripleTOF 5600+ system (Q-TOF) equipped with a DuoSpray ion source
Instrument type: LC-ESI-QTOF
Ms type: MS2
Ion mode: POSITIVE
Collision energy: 45V
Column name: Acquity UPLC Peptide BEH C18 column (50*2.1 mm; 1.7 um; 130A)(Waters Co.,Milford, MA, USA)
Retention time: 13.72714
Precursor type: [M+NH4]+
Precursor m/z: 816.7046
Intensity: 9095
m/z	relative intensity
81.07	45
83.086	30
93.07	33
95.085	72
97.103	21
107.085	24
109.102	41
121.1	27
123.116	30
135.112	23
163.147	26
175.146	22
183.171	36
207.172	32
211.205	32
217.199	24
237.223	26
243.213	30
245.221	27
261.218	107
263.237	93
279.232	6
283.226	12
285.23	16
285.243	13
311.236	6
311.259	27
311.282	7
313.27	59
313.287	13
317.241	16
317.254	19
319.264	21
331.314	4
335.256	13
337.279	59
339.286	15
359.323	6
489.393	15
517.425	149
517.442	38
519.44	999
519.817	10
521.453	561
543.437	175
545.453	469
547.465	319
547.486	67
549.469	15
549.503	19
571.468	608
573.482	299
575.481	43
575.498	222
575.515	48
575.525	24
599.498	471
599.521	60
601.511	62
601.523	23
601.533	33
603.546	13
629.552	13
687.563	4
728.665	230
728.688	363
728.715	131
743.613	3
781.659	23
781.678	7
781.694	4
797.224	3
799.679	137
816.702	254
816.779	4
