Mass spectrum: TG 55:1; LC-ESI-QTOF; MS2
Name: TG 55:1
Class:  TAG
Formula: C58H110O6
Exact mass: 903.512
SMILES: CCCCCCCCCCCCCCCCCCCCC(=O)OCC(COC(=O)CCCCCCCCCCCCCCC)OC(=O)CCCCCCCCC\C=C/CCCCCC
InChI: InChI=1S/C58H110O6/c1-4-7-10-13-16-19-22-25-27-28-29-31-33-36-39-42-45-48-51-57(60)63-54-55(53-62-56(59)50-47-44-41-38-35-32-24-21-18-15-12-9-6-3)64-58(61)52-49-46-43-40-37-34-30-26-23-20-17-14-11-8-5-2/h20,23,55H,4-19,21-22,24-54H2,1-3H3/b23-20-
Instrument: AB Sciex TripleTOF 5600+ system (Q-TOF) equipped with a DuoSpray ion source
Instrument type: LC-ESI-QTOF
Ms type: MS2
Ion mode: POSITIVE
Collision energy: 45V
Column name: Acquity UPLC Peptide BEH C18 column (50*2.1 mm; 1.7 um; 130A)(Waters Co.,Milford, MA, USA)
Retention time: 15.82894
Precursor type: [M+NH4]+
Precursor m/z: 920.8594
Intensity: 1358
m/z	relative intensity
81.068	37
83.085	17
95.085	32
97.097	20
109.101	14
111.115	14
123.11	14
135.112	12
226.986	26
239.237	28
265.251	47
265.263	23
267.266	14
268.997	14
281.279	21
293.281	17
309.306	5
313.268	10
321.27	8
335.327	5
337.285	5
339.288	8
341.31	8
355.337	9
383.356	8
412.959	5
446.915	5
448.926	5
537.494	21
549.482	55
551.493	97
551.518	29
563.504	35
565.505	35
565.532	38
575.587	18
577.496	185
577.524	297
579.532	32
591.52	29
591.538	50
593.531	53
593.552	124
593.577	17
601.513	46
605.549	711
607.56	32
619.562	821
619.613	30
621.485	24
621.581	999
633.559	59
633.578	55
633.598	52
647.571	200
647.599	755
649.601	43
661.606	23
675.623	23
688.977	5
838.772	5
877.724	5
903.727	8
903.806	8
920.692	11
920.77	35
920.799	44
920.862	185
920.91	38
921.419	9
921.52	6
921.826	10
921.884	11
