Mass spectrum: TG 49:1; LC-ESI-QTOF; MS2
Name: TG 49:1
Class:  TAG
Formula: C52H98O6
Exact mass: 819.35
SMILES: CCCCCCCCCCCCCCCC(=O)OC(COC(=O)CCCCCCCCCCCCCC)COC(=O)CCCCCCCCC\C=C/CCCCCC
InChI: InChI=1S/C52H98O6/c1-4-7-10-13-16-19-22-25-26-28-30-33-36-39-42-45-51(54)57-48-49(47-56-50(53)44-41-38-35-32-29-24-21-18-15-12-9-6-3)58-52(55)46-43-40-37-34-31-27-23-20-17-14-11-8-5-2/h19,22,49H,4-18,20-21,23-48H2,1-3H3/b22-19-
Instrument: AB Sciex TripleTOF 5600+ system (Q-TOF) equipped with a DuoSpray ion source
Instrument type: LC-ESI-QTOF
Ms type: MS2
Ion mode: POSITIVE
Collision energy: 45V
Column name: Acquity UPLC Peptide BEH C18 column (50*2.1 mm; 1.7 um; 130A)(Waters Co.,Milford, MA, USA)
Retention time: 14.60526
Precursor type: [M+NH4]+
Precursor m/z: 836.7679
Intensity: 30625
m/z	relative intensity
71.086	13
79.055	2
81.07	17
83.085	17
85.101	13
93.073	3
95.086	32
97.102	11
99.117	3
107.087	4
109.102	18
111.081	1
111.116	6
113.132	1
121.102	7
123.116	10
125.134	2
135.117	8
137.132	8
139.114	1
139.152	1
149.133	4
151.146	4
163.148	2
165.159	1
165.172	2
177.164	1
179.18	1
191.177	2
207.218	1
211.207	1
219.214	1
221.228	3
225.221	23
233.223	2
237.22	5
239.238	36
247.234	3
247.245	5
251.235	10
253.254	3
256.265	2
257.251	1
265.252	29
279.272	0
282.284	1
283.264	0
297.281	0
299.257	5
299.274	2
307.26	0
311.262	0
313.277	18
321.285	0
323.295	0
325.27	1
327.292	0
339.274	1
339.293	4
341.29	0
344.985	1
509.459	2
521.447	1
523.459	3
523.48	7
535.435	1
535.455	3
535.47	7
535.493	2
537.487	573
549.485	123
551.502	219
561.74	3
561.757	1
563.502	999
564.503	1
565.519	70
565.548	6
575.703	1
575.729	1
577.517	558
578.524	0
579.53	1
591.52	16
591.541	30
605.553	1
619.573	0
801.717	0
810.74	0
819.719	1
819.764	1
822.881	0
834.138	0
834.196	0
836.653	0
836.766	58
836.799	12
