Mass spectrum: TG 54:7; LC-ESI-QTOF; MS2
Name: TG 54:7
Class:  TAG
Formula: C57H96O6
Exact mass: 877.389
SMILES: CCCCC\C=C/C=C\CCCCCCCCC(=O)OCC(COC(=O)CCCCCCCCC\C=C/C=C\C=C/CC)OC(=O)CCCCCCCC\C=C/C=C\CCCCC
InChI: InChI=1S/C57H96O6/c1-4-7-10-13-16-19-22-25-28-31-34-37-40-43-46-49-55(58)61-52-54(63-57(60)51-48-45-42-39-36-33-30-27-24-21-18-15-12-9-6-3)53-62-56(59)50-47-44-41-38-35-32-29-26-23-20-17-14-11-8-5-2/h7,10,13,16-24,26-27,54H,4-6,8-9,11-12,14-15,25,28-53H2,1-3H3/b10-7-,16-13-,20-17-,21-18-,22-19-,26-23-,27-24-
Instrument: AB Sciex TripleTOF 5600+ system (Q-TOF) equipped with a DuoSpray ion source
Instrument type: LC-ESI-QTOF
Ms type: MS2
Ion mode: POSITIVE
Collision energy: 45V
Column name: Acquity UPLC Peptide BEH C18 column (50*2.1 mm; 1.7 um; 130A)(Waters Co.,Milford, MA, USA)
Retention time: 13.90108
Precursor type: [M+NH4]+
Precursor m/z: 894.7526
Intensity: 5002
m/z	relative intensity
79.055	14
81.069	29
91.054	18
93.069	18
95.085	39
107.083	21
109.102	20
123.121	13
135.115	16
137.13	17
159.114	13
161.133	24
163.147	21
173.136	14
175.15	24
177.167	13
203.178	32
237.222	17
243.207	24
245.22	15
245.234	13
261.214	56
261.223	20
261.228	24
263.229	16
263.239	66
269.225	17
273.245	8
285.231	6
287.236	25
287.257	6
301.251	6
311.247	17
311.255	6
311.264	17
315.232	4
317.235	9
317.245	7
317.255	18
319.265	16
335.259	17
337.272	68
337.286	20
339.284	16
523.456	20
525.474	14
541.458	9
547.475	10
548.482	11
549.47	12
570.459	9
571.455	9
571.481	8
572.478	9
573.468	80
573.489	243
575.494	17
575.519	14
576.499	22
578.532	12
595.444	10
595.45	12
595.465	45
595.495	25
597.482	999
597.501	231
598.477	13
598.507	18
599.504	866
600.502	18
601.488	10
601.525	10
601.536	16
602.52	21
615.503	9
621.483	7
623.505	64
647.495	7
649.527	11
697.547	3
704.979	3
753.608	2
765.598	6
779.626	2
793.665	5
807.656	3
812.666	4
821.658	2
826.664	3
859.693	13
859.747	17
875.654	38
875.7	272
875.748	52
875.772	9
875.789	12
877.707	120
877.731	140
877.76	59
878.721	10
894.677	18
894.699	27
894.725	96
894.737	59
894.754	202
894.771	59
894.78	52
894.809	14
