Mass spectrum: TG 46:2; LC-ESI-QTOF; MS2
Name: TG 46:2
Class:  TAG
Formula: C49H90O6
Exact mass: 775.253
SMILES: CCCCCCCCCCCCCCCC(=O)OC(COC(=O)CCCCCCCCCCC)COC(=O)CCCCCCCC\C=C/C=C\CCCCC
InChI: InChI=1S/C49H90O6/c1-4-7-10-13-16-19-21-23-24-26-27-30-33-36-39-42-48(51)54-45-46(44-53-47(50)41-38-35-32-29-18-15-12-9-6-3)55-49(52)43-40-37-34-31-28-25-22-20-17-14-11-8-5-2/h16,19,21,23,46H,4-15,17-18,20,22,24-45H2,1-3H3/b19-16-,23-21-
Instrument: AB Sciex TripleTOF 5600+ system (Q-TOF) equipped with a DuoSpray ion source
Instrument type: LC-ESI-QTOF
Ms type: MS2
Ion mode: POSITIVE
Collision energy: 45V
Column name: Acquity UPLC Peptide BEH C18 column (50*2.1 mm; 1.7 um; 130A)(Waters Co.,Milford, MA, USA)
Retention time: 13.87742
Precursor type: [M+NH4]+
Precursor m/z: 792.7081
Intensity: 8098
m/z	relative intensity
71.085	28
79.051	9
81.068	69
83.085	34
85.101	24
91.055	9
93.073	9
95.087	70
97.1	26
107.082	13
109.099	46
111.114	16
121.102	26
123.114	20
133.1	7
135.11	9
135.12	14
137.135	12
147.118	9
149.135	10
161.133	12
163.15	13
165.164	10
175.147	12
177.165	10
183.17	29
183.183	11
209.189	8
211.205	56
219.214	9
237.224	40
239.238	48
245.224	37
257.214	27
263.233	67
263.252	16
265.25	13
283.227	3
285.23	6
285.25	17
311.256	9
311.275	6
313.269	15
313.288	13
319.255	13
319.274	6
337.272	7
339.289	3
417.388	2
445.407	3
465.405	4
491.411	35
493.425	169
493.456	14
494.622	4
495.442	866
519.445	899
519.502	5
521.457	518
521.477	92
523.482	10
547.474	999
549.487	254
551.516	8
573.709	7
575.503	801
575.522	200
577.522	28
603.524	35
603.545	30
757.671	6
775.676	8
792.592	3
792.687	19
792.708	82
792.751	27
