Mass spectrum: TG 56:7; LC-ESI-QTOF; MS2
Name: TG 56:7
Class:  TAG
Formula: C59H100O6
Exact mass: 905.443
SMILES: CCCCCCCCCCCCCCCC(=O)OCC(COC(=O)CC\C=C/C\C=C/C\C=C/C\C=C/C\C=C/C\C=C/CC)OC(=O)CCCCCCCCC\C=C/CCCCCC
InChI: InChI=1S/C59H100O6/c1-4-7-10-13-16-19-22-25-27-28-29-30-32-34-37-40-43-46-49-52-58(61)64-55-56(54-63-57(60)51-48-45-42-39-36-33-24-21-18-15-12-9-6-3)65-59(62)53-50-47-44-41-38-35-31-26-23-20-17-14-11-8-5-2/h7,10,16,19-20,23,25,27,29-30,34,37,43,46,56H,4-6,8-9,11-15,17-18,21-22,24,26,28,31-33,35-36,38-42,44-45,47-55H2,1-3H3/b10-7-,19-16-,23-20-,27-25-,30-29-,37-34-,46-43-
Instrument: AB Sciex TripleTOF 5600+ system (Q-TOF) equipped with a DuoSpray ion source
Instrument type: LC-ESI-QTOF
Ms type: MS2
Ion mode: POSITIVE
Collision energy: 45V
Column name: Acquity UPLC Peptide BEH C18 column (50*2.1 mm; 1.7 um; 130A)(Waters Co.,Milford, MA, USA)
Retention time: 14.39394
Precursor type: [M+NH4]+
Precursor m/z: 922.7839
Intensity: 204460
m/z	relative intensity
71.049	1
71.085	11
77.038	2
79.054	12
81.07	28
83.049	0
83.085	22
85.066	1
85.101	11
91.054	15
93.069	16
95.049	0
95.085	42
97.064	2
97.101	16
99.079	1
99.116	2
105.07	9
107.052	0
107.085	12
109.064	0
109.101	29
111.079	1
111.117	8
113.132	1
115.054	2
117.069	9
119.085	13
121.06	0
121.101	24
123.084	0
123.116	15
125.097	1
125.132	2
127.112	0
127.15	0
128.063	2
129.07	8
131.085	16
133.065	0
133.101	13
135.081	2
135.116	20
137.095	1
137.133	6
139.113	1
139.149	1
141.068	4
141.127	0
142.079	0
143.085	7
145.101	13
147.082	2
147.117	9
149.095	2
149.132	12
151.111	0
151.148	4
152.06	0
153.07	0
153.127	2
155.085	6
157.101	13
159.079	1
159.117	17
161.096	3
161.132	13
163.114	1
163.147	10
165.069	1
165.164	5
166.075	0
167.085	3
167.142	1
168.096	0
169.101	14
169.159	0
171.08	0
171.117	23
173.098	1
173.133	17
175.111	3
175.149	14
177.13	1
177.164	5
179.086	0
179.179	1
181.101	9
181.159	0
183.116	14
185.095	1
185.132	17
187.111	5
187.148	11
189.128	8
189.163	4
191.142	1
191.18	2
193.101	1
194.108	0
195.116	7
197.132	13
199.112	3
199.149	17
201.126	3
201.163	25
203.145	4
203.179	5
205.195	1
207.119	1
209.134	13
211.149	20
213.129	3
213.163	19
215.145	4
215.179	16
217.16	1
217.196	0
219.216	0
221.132	1
221.227	5
223.147	16
225.128	1
225.164	11
227.142	3
227.18	32
229.158	8
229.196	1
231.177	1
235.146	1
237.164	10
237.22	1
239.147	0
239.176	4
239.19	0
239.238	50
241.159	10
241.195	3
243.175	3
243.211	0
245.19	0
245.224	0
247.242	17
249.164	1
250.175	0
251.177	8
251.189	3
251.237	0
253.195	3
253.256	0
255.175	4
255.212	0
256.263	2
257.247	1
263.179	0
263.227	0
263.241	1
264.186	0
265.193	6
265.252	67
267.173	1
267.21	10
267.267	0
269.189	1
269.226	19
275.18	0
279.177	0
279.207	0
281.191	0
281.226	0
282.277	0
283.164	0
283.201	3
283.217	1
283.243	9
285.178	0
289.208	0
291.21	3
292.318	0
293.228	88
294.231	1
295.236	0
295.253	0
295.27	0
297.181	0
297.288	0
301.177	0
303.26	0
307.199	0
307.214	0
309.216	3
309.232	1
310.284	0
311.237	132
312.241	1
313.274	76
314.287	0
317.279	0
319.257	0
321.276	2
321.293	0
323.285	0
323.303	0
325.221	0
325.284	0
326.217	0
327.232	0
327.291	0
329.249	0
335.246	0
337.273	1
337.291	0
339.226	0
339.29	77
340.294	0
341.258	0
341.28	0
341.305	1
341.325	0
349.252	0
357.315	0
365.251	0
367.238	0
367.262	6
367.283	10
381.316	0
383.256	3
385.274	3
393.292	3
393.306	4
409.339	0
409.352	0
421.334	0
423.343	0
425.352	0
433.332	0
435.341	0
437.379	0
439.394	0
441.372	0
445.386	0
447.334	0
447.351	0
447.397	0
449.369	1
451.367	0
459.347	0
461.359	0
461.383	0
463.374	0
465.417	0
467.389	0
473.369	0
477.411	0
487.383	1
489.405	0
499.382	1
501.398	0
503.486	0
513.394	0
515.439	0
527.417	0
531.435	0
531.459	1
539.402	1
539.458	0
541.413	0
549.451	1
549.476	2
553.424	0
557.476	2
567.464	0
569.433	0
575.459	1
575.488	8
575.51	4
575.677	0
575.706	4
575.724	2
575.737	1
576.488	0
577.343	0
577.396	0
577.518	999
578.275	0
578.524	44
579.436	0
587.46	0
587.503	10
589.504	3
589.52	16
591.53	0
593.482	0
599.5	9
601.525	11
603.521	2
603.546	1
621.484	8
621.503	2
621.544	0
623.502	404
624.483	1
624.505	4
624.525	2
639.483	1
639.509	1
641.507	1
641.533	0
647.494	0
649.519	453
650.505	3
650.525	3
650.542	3
651.503	0
651.534	6
665.508	0
667.52	0
667.54	1
677.551	0
711.59	0
755.638	0
769.638	0
779.667	0
781.633	0
783.654	0
795.639	0
795.659	0
795.682	0
807.643	0
809.652	0
809.7	0
821.665	0
821.705	0
823.652	0
823.681	0
823.716	0
835.662	0
835.699	0
837.692	0
840.718	0
849.726	0
851.724	0
854.735	0
863.717	0
869.726	0
869.752	0
869.783	0
877.771	0
886.776	0
887.719	3
887.756	5
902.921	0
905.682	0
905.758	82
905.822	1
906.759	2
906.802	0
919.855	0
919.895	0
919.939	0
919.974	0
922.786	144
922.875	0
923.778	6
923.798	4
923.821	2
