Mass spectrum: TG 53:7; LC-ESI-QTOF; MS2
Name: TG 53:7
Class:  TAG
Formula: C56H94O6
Exact mass: 863.362
SMILES: CCCCCCCCCCCCCCC(=O)OCC(COC(=O)CCC\C=C/C\C=C/C\C=C/C\C=C/C\C=C/CC)OC(=O)CCCCCCCC\C=C/C=C\CCCCC
InChI: InChI=1S/C56H94O6/c1-4-7-10-13-16-19-22-25-27-28-30-31-34-37-40-43-46-49-55(58)61-52-53(51-60-54(57)48-45-42-39-36-33-24-21-18-15-12-9-6-3)62-56(59)50-47-44-41-38-35-32-29-26-23-20-17-14-11-8-5-2/h7,10,16-17,19-20,23,25-27,30-31,37,40,53H,4-6,8-9,11-15,18,21-22,24,28-29,32-36,38-39,41-52H2,1-3H3/b10-7-,19-16-,20-17-,26-23-,27-25-,31-30-,40-37-
Instrument: AB Sciex TripleTOF 5600+ system (Q-TOF) equipped with a DuoSpray ion source
Instrument type: LC-ESI-QTOF
Ms type: MS2
Ion mode: POSITIVE
Collision energy: 45V
Column name: Acquity UPLC Peptide BEH C18 column (50*2.1 mm; 1.7 um; 130A)(Waters Co.,Milford, MA, USA)
Retention time: 13.88357
Precursor type: [M+NH4]+
Precursor m/z: 880.7303
Intensity: 484
m/z	relative intensity
95.086	159
109.1	106
121.101	114
181.077	106
197.076	429
197.086	429
201.165	267
245.223	132
267.209	132
268.999	159
270.007	114
285.222	161
297.237	61
299.258	201
302.972	132
325.272	53
327.09	53
337.275	265
344.988	185
355.337	61
383.151	61
384.974	222
439.194	106
463.397	53
466.98	159
495.256	185
547.465	132
551.333	294
561.469	403
561.493	999
575.506	193
583.471	265
595.458	79
598.479	79
621.468	188
621.502	159
624.493	132
663.458	106
793.495	53
798.659	220
863.695	106
880.536	87
880.693	164
880.731	838
880.764	432
880.799	159
