Mass spectrum: TG 48:4; LC-ESI-QTOF; MS2
Name: TG 48:4
Class:  TAG
Formula: C51H90O6
Exact mass: 799.275
SMILES: CCCCCCCCCCCCCC(=O)OCC(COC(=O)CCCCCCCCC\C=C/C=C\C=C/CC)OC(=O)CCCCC\C=C/CCCCCCCC
InChI: InChI=1S/C51H90O6/c1-4-7-10-13-16-19-22-24-25-27-29-32-35-38-41-44-50(53)56-47-48(46-55-49(52)43-40-37-34-31-28-21-18-15-12-9-6-3)57-51(54)45-42-39-36-33-30-26-23-20-17-14-11-8-5-2/h7,10,13,16,19,22,26,30,48H,4-6,8-9,11-12,14-15,17-18,20-21,23-25,27-29,31-47H2,1-3H3/b10-7-,16-13-,22-19-,30-26-
Instrument: AB Sciex TripleTOF 5600+ system (Q-TOF) equipped with a DuoSpray ion source
Instrument type: LC-ESI-QTOF
Ms type: MS2
Ion mode: POSITIVE
Collision energy: 45V
Column name: Acquity UPLC Peptide BEH C18 column (50*2.1 mm; 1.7 um; 130A)(Waters Co.,Milford, MA, USA)
Retention time: 13.72734
Precursor type: [M+NH4]+
Precursor m/z: 816.7077
Intensity: 2438
m/z	relative intensity
79.055	45
81.071	82
83.085	33
93.068	29
95.086	89
97.102	42
107.087	47
109.104	71
121.104	44
123.116	52
131.084	26
135.12	48
147.118	25
149.136	29
159.115	29
163.149	44
173.13	30
175.151	25
183.177	22
189.163	40
207.175	64
211.209	60
219.214	44
226.986	29
235.207	23
237.221	37
237.241	25
239.235	22
243.203	29
243.215	37
245.228	22
261.205	22
261.212	33
261.216	41
261.226	105
261.243	22
263.23	26
263.245	52
283.224	15
285.238	40
285.253	11
292.961	11
311.262	55
313.276	74
317.238	14
317.252	51
319.255	19
335.262	14
337.268	44
337.29	56
339.293	36
385.365	8
451.389	8
493.434	29
517.4	41
517.431	161
517.465	29
519.423	192
519.429	189
519.443	850
519.47	194
521.453	999
521.473	180
521.479	110
543.426	45
543.45	211
545.436	107
545.442	127
545.449	172
545.465	667
545.489	72
547.458	30
547.464	37
547.479	158
571.439	86
571.471	634
571.495	227
573.472	64
573.487	323
573.503	94
573.51	79
573.516	67
575.511	203
599.509	307
599.541	60
601.492	29
601.502	37
601.522	138
601.54	90
687.575	7
781.635	14
781.667	59
781.695	14
799.618	22
799.675	96
799.694	60
816.642	22
816.684	45
816.712	221
