Mass spectrum: TG 56:7; LC-ESI-QTOF; MS2
Name: TG 56:7
Class:  TAG
Formula: C59H100O6
Exact mass: 905.443
SMILES: CCCCCCCCCCCCCCCC(=O)OCC(COC(=O)CC\C=C/C\C=C/C\C=C/C\C=C/C\C=C/C\C=C/CC)OC(=O)CCCCCCCCC\C=C/CCCCCC
InChI: InChI=1S/C59H100O6/c1-4-7-10-13-16-19-22-25-27-28-29-30-32-34-37-40-43-46-49-52-58(61)64-55-56(54-63-57(60)51-48-45-42-39-36-33-24-21-18-15-12-9-6-3)65-59(62)53-50-47-44-41-38-35-31-26-23-20-17-14-11-8-5-2/h7,10,16,19-20,23,25,27,29-30,34,37,43,46,56H,4-6,8-9,11-15,17-18,21-22,24,26,28,31-33,35-36,38-42,44-45,47-55H2,1-3H3/b10-7-,19-16-,23-20-,27-25-,30-29-,37-34-,46-43-
Instrument: AB Sciex TripleTOF 5600+ system (Q-TOF) equipped with a DuoSpray ion source
Instrument type: LC-ESI-QTOF
Ms type: MS2
Ion mode: POSITIVE
Collision energy: 45V
Column name: Acquity UPLC Peptide BEH C18 column (50*2.1 mm; 1.7 um; 130A)(Waters Co.,Milford, MA, USA)
Retention time: 14.37786
Precursor type: [M+NH4]+
Precursor m/z: 922.7829
Intensity: 7526
m/z	relative intensity
79.053	4
81.069	15
83.084	7
85.1	5
91.052	7
93.069	9
95.085	21
97.101	6
105.069	4
107.085	5
109.1	6
111.116	4
117.068	5
121.102	6
123.115	7
129.068	4
131.087	6
133.101	7
135.115	9
145.099	5
147.12	4
149.134	5
157.1	7
159.117	7
161.132	6
169.102	9
171.117	11
173.134	5
175.148	7
181.1	4
183.118	8
185.134	9
187.148	5
189.166	4
195.116	4
197.13	4
199.15	7
201.128	4
201.161	11
201.17	6
209.131	6
211.149	11
213.161	10
215.182	7
223.152	7
225.162	4
227.179	17
237.163	5
239.235	21
241.157	4
247.241	11
251.175	4
255.183	3
265.193	4
265.253	32
267.206	4
269.228	10
279.21	1
283.202	2
283.237	3
283.248	3
291.206	2
293.23	42
309.22	2
311.234	79
313.276	42
321.237	1
321.279	3
339.289	34
341.303	2
348.974	1
355.264	1
367.256	3
367.275	6
367.303	1
383.258	1
385.274	3
393.301	3
515.417	1
531.464	2
549.457	2
553.435	1
557.461	1
575.473	3
575.705	4
575.744	2
577.518	999
578.487	1
578.524	29
603.531	4
621.483	5
621.56	1
623.502	204
624.495	5
624.526	4
639.497	2
649.515	210
650.514	3
650.535	3
651.544	3
651.57	1
667.536	2
783.668	1
795.649	1
801.701	0
807.644	0
827.681	3
827.717	4
827.748	1
835.683	1
840.69	0
840.748	0
853.714	0
854.718	1
887.742	3
887.784	2
905.71	6
905.736	22
905.758	31
905.778	13
905.797	5
905.826	3
906.768	2
917.641	1
917.688	25
917.728	10
917.747	8
917.776	3
922.517	2
922.687	4
922.788	211
923.735	1
923.778	9
923.855	1
