Mass spectrum: TG 58:3; LC-ESI-QTOF; MS2
Name: TG 58:3
Class:  TAG
Formula: C61H112O6
Exact mass: 941.5609999999999
SMILES: CCCCCCCCCC\C=C/CCCCCCCCCC(=O)OCC(COC(=O)CCCCCCCCC\C=C/CCCCCC)OC(=O)CCCCCCCCC\C=C/CCCCCC
InChI: InChI=1S/C61H112O6/c1-4-7-10-13-16-19-22-25-28-29-30-31-34-36-39-42-45-48-51-54-60(63)66-57-58(67-61(64)55-52-49-46-43-40-37-33-27-24-21-18-15-12-9-6-3)56-65-59(62)53-50-47-44-41-38-35-32-26-23-20-17-14-11-8-5-2/h20-21,23-24,29-30,58H,4-19,22,25-28,31-57H2,1-3H3/b23-20-,24-21-,30-29-
Instrument: AB Sciex TripleTOF 5600+ system (Q-TOF) equipped with a DuoSpray ion source
Instrument type: LC-ESI-QTOF
Ms type: MS2
Ion mode: POSITIVE
Collision energy: 45V
Column name: Acquity UPLC Peptide BEH C18 column (50*2.1 mm; 1.7 um; 130A)(Waters Co.,Milford, MA, USA)
Retention time: 15.66993
Precursor type: [M+NH4]+
Precursor m/z: 958.8829
Intensity: 1291
m/z	relative intensity
81.071	23
95.085	30
149.135	13
245.224	21
247.243	20
263.237	47
265.249	26
275.274	10
293.288	27
313.269	14
319.275	16
321.312	23
323.343	6
337.258	10
339.277	20
341.307	21
349.301	6
349.349	16
367.317	16
395.358	7
397.364	23
575.5	178
575.523	85
577.529	34
601.486	27
601.512	113
601.53	116
603.521	281
603.541	288
605.559	21
629.538	133
629.563	89
631.555	374
631.589	154
632.574	16
633.576	37
637.594	13
655.541	17
657.582	307
658.58	13
659.596	999
660.595	13
661.607	747
685.603	154
685.624	99
685.645	20
686.604	6
687.635	30
719.879	6
817.753	6
923.854	16
939.781	44
939.803	152
939.826	292
939.846	177
939.876	58
941.794	20
941.85	58
941.884	27
958.783	10
958.84	54
958.879	383
958.916	89
959.861	21
