Mass spectrum: TG 49:2; LC-ESI-QTOF; MS2
Name: TG 49:2
Class:  TAG
Formula: C52H96O6
Exact mass: 817.3340000000001
SMILES: CCCCCCCCCCCCCCCC(=O)OC(COC(=O)CCCCCCCCCCCCCC)COC(=O)CCCCCCCC\C=C/C=C\CCCCC
InChI: InChI=1S/C52H96O6/c1-4-7-10-13-16-19-22-25-26-28-30-33-36-39-42-45-51(54)57-48-49(47-56-50(53)44-41-38-35-32-29-24-21-18-15-12-9-6-3)58-52(55)46-43-40-37-34-31-27-23-20-17-14-11-8-5-2/h16,19,22,25,49H,4-15,17-18,20-21,23-24,26-48H2,1-3H3/b19-16-,25-22-
Instrument: AB Sciex TripleTOF 5600+ system (Q-TOF) equipped with a DuoSpray ion source
Instrument type: LC-ESI-QTOF
Ms type: MS2
Ion mode: POSITIVE
Collision energy: 45V
Column name: Acquity UPLC Peptide BEH C18 column (50*2.1 mm; 1.7 um; 130A)(Waters Co.,Milford, MA, USA)
Retention time: 14.32764
Precursor type: [M+NH4]+
Precursor m/z: 834.7478
Intensity: 9319
m/z	relative intensity
71.085	14
81.069	32
83.086	16
85.101	20
95.085	48
97.099	14
107.085	10
109.098	26
109.106	11
111.116	10
121.102	11
123.114	17
135.119	8
137.132	11
149.132	7
161.134	10
163.15	7
175.147	10
207.209	6
211.202	7
225.218	41
237.221	8
239.226	8
239.241	28
245.225	27
263.237	73
279.246	1
285.24	3
297.269	1
299.26	19
311.259	1
313.269	18
313.282	6
319.26	11
319.276	5
325.277	2
335.259	2
337.261	3
337.287	4
339.286	4
341.305	4
487.458	3
521.453	4
533.448	7
533.47	8
535.466	160
537.487	846
538.477	6
547.469	134
549.473	51
549.495	64
551.499	14
559.739	6
561.487	999
562.481	10
563.496	141
563.518	51
573.706	8
575.502	934
576.501	5
577.492	4
577.507	12
577.529	14
579.53	6
579.556	5
589.515	204
591.537	4
603.534	19
617.552	5
799.721	6
817.7	2
817.748	10
834.528	1
834.752	124
834.799	12
