Mass spectrum: TG 58:7; LC-ESI-QTOF; MS2
Name: TG 58:7
Class:  TAG
Formula: C61H104O6
Exact mass: 933.497
SMILES: CCCCCCCCCCCCCCCCCC(=O)OCC(COC(=O)CCCCC\C=C/C\C=C/C\C=C/C\C=C/C\C=C/CC)OC(=O)CCCCCCCC\C=C/C=C\CCCCC
InChI: InChI=1S/C61H104O6/c1-4-7-10-13-16-19-22-25-28-29-30-31-34-36-39-42-45-48-51-54-60(63)66-57-58(67-61(64)55-52-49-46-43-40-37-33-27-24-21-18-15-12-9-6-3)56-65-59(62)53-50-47-44-41-38-35-32-26-23-20-17-14-11-8-5-2/h7,10,16,18-19,21,24-25,27-28,30-31,36,39,58H,4-6,8-9,11-15,17,20,22-23,26,29,32-35,37-38,40-57H2,1-3H3/b10-7-,19-16-,21-18-,27-24-,28-25-,31-30-,39-36-
Instrument: AB Sciex TripleTOF 5600+ system (Q-TOF) equipped with a DuoSpray ion source
Instrument type: LC-ESI-QTOF
Ms type: MS2
Ion mode: POSITIVE
Collision energy: 45V
Column name: Acquity UPLC Peptide BEH C18 column (50*2.1 mm; 1.7 um; 130A)(Waters Co.,Milford, MA, USA)
Retention time: 14.50214
Precursor type: [M+NH4]+
Precursor m/z: 950.8138
Intensity: 10354
m/z	relative intensity
79.053	12
81.068	36
83.083	14
91.052	12
93.068	16
95.084	36
97.099	7
105.068	18
107.084	13
109.1	21
119.083	19
121.101	24
123.115	16
131.081	12
133.1	18
135.114	20
147.115	8
149.13	10
157.101	8
161.129	15
163.146	11
171.116	17
173.137	7
175.147	25
177.165	16
185.132	22
187.146	15
189.165	24
191.178	9
199.146	13
201.164	21
203.179	72
205.194	9
213.161	9
215.179	24
217.198	34
227.179	9
231.21	11
245.228	20
247.24	22
259.244	6
261.219	7
263.238	42
265.249	49
269.226	37
270.228	4
271.242	3
285.219	3
287.238	32
287.272	4
289.251	3
293.285	4
295.243	8
297.257	67
299.277	3
311.233	4
313.247	15
313.265	15
313.28	13
314.276	9
314.292	2
315.266	169
317.286	3
319.249	3
319.268	9
321.284	3
337.275	75
339.289	106
341.307	13
342.305	11
343.263	5
353.289	4
367.318	14
369.272	3
371.295	45
387.275	4
387.292	7
389.3	9
389.317	6
527.407	5
575.481	5
575.502	11
577.502	72
577.533	45
578.521	99
579.51	6
585.484	4
595.495	5
599.479	8
599.505	8
599.528	15
600.485	6
600.506	10
600.536	3
601.517	999
602.517	17
603.535	101
604.511	9
604.533	10
604.556	6
605.543	21
623.478	6
623.504	40
625.495	7
625.528	14
626.49	6
626.515	21
626.535	13
627.542	17
628.536	23
629.548	194
648.505	7
649.511	12
651.534	817
652.521	6
652.544	12
653.552	720
654.54	9
654.572	8
655.572	10
667.543	5
669.544	12
671.555	3
671.588	4
677.542	10
677.575	2
679.568	2
767.609	2
781.618	3
783.632	1
795.654	2
807.67	1
809.641	3
821.669	4
835.695	3
849.7	5
849.742	2
853.716	2
854.717	0
863.682	1
868.761	2
869.683	1
882.758	8
882.78	3
899.754	4
899.792	12
915.715	2
915.755	17
915.782	19
915.811	9
916.789	1
930.853	2
933.786	365
933.872	3
934.765	4
934.791	4
934.824	5
947.835	2
950.81	505
951.804	5
951.835	11
