Mass spectrum: PG 32:2; LC-ESI-QTOF; MS2
Name: PG 32:2
Class:  PG
Formula: C38H71O10P
Exact mass: 718.952
SMILES: CCCCCC\C=C/CCCCCCCC(=O)OCC(COP(O)(=O)OCC(O)CO)OC(=O)CCCCCCC\C=C/CCCCCC
InChI: InChI=1S/C38H71O10P/c1-3-5-7-9-11-13-15-17-19-21-23-25-27-29-37(41)45-33-36(34-47-49(43,44)46-32-35(40)31-39)48-38(42)30-28-26-24-22-20-18-16-14-12-10-8-6-4-2/h13-16,35-36,39-40H,3-12,17-34H2,1-2H3,(H,43,44)/b15-13-,16-14-
Instrument: AB Sciex TripleTOF 5600+ system (Q-TOF) equipped with a DuoSpray ion source
Instrument type: LC-ESI-QTOF
Ms type: MS2
Ion mode: POSITIVE
Collision energy: 45V
Column name: Acquity UPLC Peptide BEH C18 column (50*2.1 mm; 1.7 um; 130A)(Waters Co.,Milford, MA, USA)
Retention time: 7.988724
Precursor type: [M+NH4]+
Precursor m/z: 736.5104
Intensity: 340
m/z	relative intensity
184.071	22
237.22	68
285.245	22
420.874	54
420.892	22
487.409	79
487.437	228
547.441	102
547.448	187
547.463	999
547.478	244
547.484	244
547.492	269
547.501	102
611.402	82
611.418	45
611.435	102
670.493	45
670.51	91
