Mass spectrum: AC 14:1; LC-ESI-QTOF; MS2
Name: AC 14:1
Class:  AcylCarnitine
Formula: C21H40NO4
Exact mass: 370.554
SMILES: CCCC\C=C\CCCCCCCC(=O)OC(CC(O)=O)C[N+](C)(C)C
InChI: InChI=1S/C21H39NO4/c1-5-6-7-8-9-10-11-12-13-14-15-16-21(25)26-19(17-20(23)24)18-22(2,3)4/h8-9,19H,5-7,10-18H2,1-4H3/p+1/b9-8+
Instrument: AB Sciex TripleTOF 5600+ system (Q-TOF) equipped with a DuoSpray ion source
Instrument type: LC-ESI-QTOF
Ms type: MS2
Ion mode: POSITIVE
Collision energy: 45V
Column name: Acquity UPLC Peptide BEH C18 column (50*2.1 mm; 1.7 um; 130A)(Waters Co.,Milford, MA, USA)
Retention time: 4.846558
Precursor type: [M+H]+
Precursor m/z: 370.2943
Intensity: 502
m/z	relative intensity
79.055	23
81.067	31
83.085	27
84.083	19
85.027	999
93.071	15
97.099	15
107.086	19
109.101	35
121.103	35
128.953	31
135.117	27
144.101	39
191.176	47
209.189	23
311.215	31
370.289	125
370.314	31
