Mass spectrum: TG 54:1; LC-ESI-QTOF; MS2
Name: TG 54:1
Class:  TAG
Formula: C57H108O6
Exact mass: 889.485
SMILES: CCCCCCCCCCCCCCCCCCCC(=O)OCC(COC(=O)CCCCCCCCCCCCCCC)OC(=O)CCCCCCCCC\C=C/CCCCCC
InChI: InChI=1S/C57H108O6/c1-4-7-10-13-16-19-22-25-27-28-30-32-35-38-41-44-47-50-56(59)62-53-54(52-61-55(58)49-46-43-40-37-34-31-24-21-18-15-12-9-6-3)63-57(60)51-48-45-42-39-36-33-29-26-23-20-17-14-11-8-5-2/h20,23,54H,4-19,21-22,24-53H2,1-3H3/b23-20-
Instrument: AB Sciex TripleTOF 5600+ system (Q-TOF) equipped with a DuoSpray ion source
Instrument type: LC-ESI-QTOF
Ms type: MS2
Ion mode: POSITIVE
Collision energy: 45V
Column name: Acquity UPLC Peptide BEH C18 column (50*2.1 mm; 1.7 um; 130A)(Waters Co.,Milford, MA, USA)
Retention time: 15.60124
Precursor type: [M+NH4]+
Precursor m/z: 906.8448
Intensity: 13504
m/z	relative intensity
71.085	5
79.052	1
81.069	7
81.076	1
83.086	5
85.1	5
93.071	1
95.084	11
97.101	6
99.116	1
107.083	1
109.1	8
111.116	4
121.101	3
123.115	5
125.131	1
135.115	3
137.131	3
149.126	1
149.135	1
151.147	1
163.147	1
165.164	3
177.164	0
179.179	1
193.195	1
239.235	7
247.237	2
247.248	2
249.255	3
256.269	0
265.253	21
267.266	19
275.272	0
284.295	0
285.276	0
293.282	2
293.301	0
295.291	0
295.309	1
313.271	2
313.287	0
321.266	0
321.284	1
321.313	1
325.307	0
339.287	2
339.303	1
341.305	11
367.316	0
369.324	0
369.35	0
523.474	0
549.472	1
549.495	4
551.466	1
551.489	9
551.513	11
561.564	1
577.518	119
577.723	1
578.5	0
578.527	0
579.531	93
580.515	4
580.531	6
580.55	9
591.535	0
603.625	1
603.655	1
603.672	1
605.431	0
605.549	999
606.528	1
606.555	10
607.564	470
608.568	10
633.58	211
634.574	2
634.604	1
635.565	0
635.603	2
661.588	1
661.611	2
661.635	1
689.629	0
849.71	0
871.782	0
871.818	0
881.713	1
881.753	1
881.783	2
881.85	0
889.815	1
889.837	1
906.727	1
906.762	1
906.82	21
906.845	84
906.872	26
906.949	0
907.817	1
907.861	1
