Mass spectrum: TG 54:5; LC-ESI-QTOF; MS2
Name: TG 54:5
Class:  TAG
Formula: C57H100O6
Exact mass: 881.4209999999999
SMILES: CCCCCC\C=C/CCCCCCCCCC(=O)OCC(COC(=O)CCCCCCCC\C=C/C=C\CCCCC)OC(=O)CCCCCCCC\C=C/C=C\CCCCC
InChI: InChI=1S/C57H100O6/c1-4-7-10-13-16-19-22-25-28-31-34-37-40-43-46-49-55(58)61-52-54(63-57(60)51-48-45-42-39-36-33-30-27-24-21-18-15-12-9-6-3)53-62-56(59)50-47-44-41-38-35-32-29-26-23-20-17-14-11-8-5-2/h16,18-25,27,54H,4-15,17,26,28-53H2,1-3H3/b19-16-,21-18-,23-20-,25-22-,27-24-
Instrument: AB Sciex TripleTOF 5600+ system (Q-TOF) equipped with a DuoSpray ion source
Instrument type: LC-ESI-QTOF
Ms type: MS2
Ion mode: POSITIVE
Collision energy: 45V
Column name: Acquity UPLC Peptide BEH C18 column (50*2.1 mm; 1.7 um; 130A)(Waters Co.,Milford, MA, USA)
Retention time: 14.30333
Precursor type: [M+NH4]+
Precursor m/z: 898.7828
Intensity: 262556
m/z	relative intensity
71.049	1
71.086	3
77.038	3
79.054	14
81.07	56
83.049	1
83.085	20
85.064	2
85.101	3
91.054	9
93.07	20
95.086	56
97.065	3
97.101	17
99.081	4
105.069	5
107.085	15
109.101	39
111.08	2
111.117	8
113.096	3
117.07	1
119.085	8
121.101	31
123.117	27
125.095	3
125.132	2
127.113	3
131.085	3
133.1	12
135.117	28
137.096	1
137.132	14
139.112	3
141.127	2
145.101	2
147.117	11
149.093	0
149.133	20
151.116	0
151.147	9
153.128	5
155.141	1
157.102	0
159.118	3
161.133	19
163.109	0
163.148	26
165.129	2
165.164	9
167.142	3
169.159	1
171.115	2
173.132	5
175.148	20
177.131	0
177.163	10
179.14	1
179.149	1
179.18	3
181.16	2
183.114	0
185.133	2
187.147	3
189.133	0
189.163	11
191.141	1
191.177	4
193.151	1
193.16	3
193.195	0
195.14	0
195.174	1
199.148	2
201.162	3
203.179	5
205.195	2
207.138	0
207.173	3
209.151	0
213.161	1
213.172	0
215.174	0
215.185	0
217.195	2
219.173	0
219.211	1
221.154	0
221.19	1
221.231	0
223.164	1
225.169	1
227.181	1
228.185	0
229.193	1
231.214	0
233.227	2
235.169	2
235.249	0
237.226	0
239.238	3
240.243	2
243.212	11
245.227	51
247.205	0
247.243	24
249.183	1
249.259	0
251.174	0
261.222	34
261.26	0
263.237	152
264.239	0
265.214	0
265.253	72
271.246	1
273.229	0
273.263	0
275.23	1
275.245	1
275.275	0
277.204	0
277.215	1
277.255	0
279.232	2
280.259	0
281.216	0
282.27	0
282.282	0
283.194	0
283.242	1
285.22	0
285.255	0
285.268	0
287.278	0
289.2	0
289.253	4
291.228	0
291.274	0
293.228	1
293.249	0
294.23	1
295.24	0
297.231	0
297.265	0
299.238	1
301.252	2
303.233	0
303.268	1
305.248	0
307.259	0
309.254	0
311.234	1
311.248	0
311.267	0
312.233	1
312.247	1
313.239	0
313.276	3
314.275	1
314.287	0
315.234	0
315.272	0
315.304	0
317.249	8
317.29	0
319.263	33
319.311	0
321.28	4
323.254	0
323.294	1
325.286	0
327.265	0
329.283	0
331.262	0
331.276	0
331.291	0
333.242	0
333.284	0
335.226	0
335.256	5
335.272	1
337.274	65
338.275	0
339.289	63
340.284	0
341.279	0
341.308	0
343.263	0
343.305	0
345.285	1
345.32	0
349.239	0
349.277	0
351.248	0
353.31	0
355.294	0
357.278	0
357.34	0
359.297	0
359.333	1
361.27	0
361.313	0
363.256	0
363.281	0
365.264	0
365.285	0
367.304	0
368.282	0
371.34	0
373.308	0
373.345	0
377.267	0
379.294	0
381.313	0
383.332	0
385.346	0
387.324	0
387.365	1
389.329	0
391.282	1
391.339	0
393.312	0
397.342	0
399.365	0
401.349	0
401.371	0
403.281	0
403.352	0
405.302	0
409.349	0
411.384	0
413.34	0
413.357	0
413.395	0
415.36	0
415.393	0
415.408	0
417.366	0
417.379	0
419.318	0
419.363	0
419.4	0
421.343	0
425.382	0
427.346	0
427.391	0
429.363	0
429.399	0
431.321	0
431.363	0
431.388	0
433.329	0
433.359	0
433.411	0
435.343	0
441.366	0
441.391	0
443.382	0
443.415	0
445.367	0
445.408	0
447.358	0
449.363	0
449.386	0
455.374	0
459.344	0
459.381	0
459.399	0
461.36	0
461.393	0
463.372	0
463.402	0
469.404	0
475.382	1
477.383	0
487.378	1
489.392	1
491.398	0
491.414	0
501.392	1
501.406	0
503.399	1
503.43	0
505.429	0
507.455	3
509.469	1
515.409	1
517.401	0
525.466	18
527.456	1
527.484	8
529.422	1
533.455	0
543.444	0
543.476	8
543.495	2
545.475	2
545.496	3
545.513	0
551.47	0
551.495	4
551.516	5
552.49	6
552.509	28
553.495	9
553.515	21
559.474	1
563.492	0
571.475	1
571.495	0
573.478	5
573.506	1
575.499	20
575.52	9
577.521	1
581.483	1
581.511	1
585.474	0
585.497	1
587.507	2
589.515	1
597.486	9
597.63	4
599.374	1
599.501	999
600.512	21
601.369	0
601.396	1
601.517	974
602.527	34
603.531	154
613.498	0
613.524	1
615.479	0
615.509	2
615.533	2
617.49	0
617.518	7
619.512	1
619.534	1
623.503	1
624.484	2
624.508	7
624.525	3
625.517	34
627.519	5
627.543	5
629.531	1
629.556	1
641.546	0
645.505	0
659.528	0
671.524	0
671.55	0
671.602	0
673.534	0
673.562	0
683.612	0
685.527	0
685.557	0
685.587	0
687.549	0
697.586	0
697.618	0
699.538	0
699.586	0
701.572	0
711.629	0
713.555	0
713.589	0
713.624	0
715.593	0
725.625	0
727.587	0
727.616	0
729.584	0
729.616	0
739.61	0
739.669	0
741.601	0
741.641	0
743.617	0
743.645	0
751.632	0
755.575	0
755.609	0
755.655	0
755.682	0
757.614	0
757.64	0
757.672	0
765.635	0
769.609	0
769.641	2
769.672	1
771.662	0
779.671	0
783.629	1
783.661	1
783.699	0
783.726	0
789.714	0
797.641	0
797.667	1
797.691	0
807.741	0
811.671	0
811.709	0
825.711	0
845.732	0
855.757	0
863.678	0
863.747	35
863.78	4
864.746	0
871.717	0
872.795	0
877.74	0
878.947	0
878.986	0
879.024	0
881.476	0
881.61	0
881.757	202
882.714	0
882.749	1
882.79	1
895.938	0
895.97	0
896.006	0
898.783	140
899.753	1
899.776	1
899.798	2
899.831	0
