Mass spectrum: TG 58:12; LC-ESI-QTOF; MS2
Name: TG 58:12
Class:  TAG
Formula: C61H94O6
Exact mass: 923.4169999999999
SMILES: CCCCC\C=C/C=C\CCCCCCCCC(=O)OCC(COC(=O)CCC\C=C/C\C=C/C\C=C/C\C=C/C\C=C/CC)OC(=O)CCC\C=C/C\C=C/C\C=C/C\C=C/C\C=C/CC
InChI: InChI=1S/C61H94O6/c1-4-7-10-13-16-19-22-25-28-30-33-36-39-42-45-48-51-54-60(63)66-57-58(56-65-59(62)53-50-47-44-41-38-35-32-27-24-21-18-15-12-9-6-3)67-61(64)55-52-49-46-43-40-37-34-31-29-26-23-20-17-14-11-8-5-2/h7-8,10-11,16-21,24-29,33-34,36-37,42-43,45-46,58H,4-6,9,12-15,22-23,30-32,35,38-41,44,47-57H2,1-3H3/b10-7-,11-8-,19-16-,20-17-,21-18-,27-24-,28-25-,29-26-,36-33-,37-34-,45-42-,46-43-
Instrument: AB Sciex TripleTOF 5600+ system (Q-TOF) equipped with a DuoSpray ion source
Instrument type: LC-ESI-QTOF
Ms type: MS2
Ion mode: POSITIVE
Collision energy: 45V
Column name: Acquity UPLC Peptide BEH C18 column (50*2.1 mm; 1.7 um; 130A)(Waters Co.,Milford, MA, USA)
Retention time: 13.66335
Precursor type: [M+NH4]+
Precursor m/z: 940.7352
Intensity: 87647
m/z	relative intensity
77.038	7
79.054	17
81.069	36
83.051	1
83.084	6
85.064	3
85.103	0
91.054	37
93.069	27
95.049	1
95.085	36
97.063	4
97.101	6
99.08	1
103.054	1
105.069	26
107.085	21
109.064	1
109.1	19
111.081	3
111.117	1
113.095	1
115.054	3
116.063	1
117.069	29
119.084	29
121.101	26
123.079	3
123.116	13
125.095	2
128.062	3
129.052	1
129.069	16
131.085	42
133.1	26
135.081	3
135.117	20
137.097	2
137.132	5
139.114	1
141.069	3
143.085	13
145.1	30
147.115	19
149.097	3
149.131	10
151.117	1
151.146	2
155.085	8
157.101	20
159.116	40
161.096	3
161.132	27
163.111	5
163.147	11
165.069	1
165.125	1
165.133	1
167.084	2
169.1	17
171.116	27
173.09	1
173.1	1
173.131	44
175.111	5
175.148	27
177.126	3
177.164	5
179.143	1
181.101	4
182.106	1
183.118	22
185.094	0
185.131	43
187.105	1
187.114	3
187.148	35
189.126	4
189.163	16
191.144	3
191.177	1
193.156	1
195.108	1
195.12	2
197.132	29
199.115	1
199.148	35
201.127	5
201.163	156
203.143	6
203.178	5
205.157	2
209.131	5
210.138	0
211.147	20
213.126	1
213.164	10
215.143	8
215.178	4
217.159	3
217.194	1
219.175	1
221.128	1
223.149	4
224.156	1
225.164	19
227.142	1
227.172	3
227.186	1
229.157	3
229.194	1
235.14	1
237.165	2
238.173	1
239.178	11
241.157	2
241.196	9
243.173	2
243.211	9
245.156	1
245.226	10
249.167	1
251.18	1
253.193	1
255.176	1
255.208	2
257.186	5
257.199	4
257.226	6
257.241	1
259.204	1
261.223	2
263.178	2
263.237	24
265.196	8
265.252	1
267.211	116
269.223	7
269.236	2
277.198	1
277.216	2
279.215	1
279.228	1
281.188	2
283.205	14
283.226	1
285.222	87
287.237	3
299.198	1
301.214	1
311.24	1
311.258	1
319.26	6
323.24	1
335.232	1
335.248	3
335.261	6
336.222	1
337.273	425
338.275	1
339.221	1
339.284	2
339.298	1
341.25	10
357.239	4
359.258	59
361.275	2
365.267	1
379.3	1
391.285	16
393.294	1
405.314	1
413.268	1
431.32	1
459.341	1
459.362	2
463.392	1
471.341	0
485.357	1
487.374	1
489.385	1
497.354	0
499.373	2
513.396	1
515.387	0
523.392	0
525.404	0
529.436	3
547.446	4
547.467	1
551.417	1
559.385	0
569.431	2
569.449	1
569.472	1
573.403	0
577.518	1
587.454	1
595.467	15
595.495	2
597.49	1
599.5	0
601.507	1
601.531	1
603.518	1
603.538	1
605.537	1
613.468	4
613.488	4
615.474	1
615.499	2
617.468	1
617.5	2
617.529	1
619.435	1
619.473	14
619.536	2
619.551	1
621.252	0
621.339	1
621.485	999
622.457	7
622.485	48
622.504	18
623.47	1
625.52	1
627.529	1
629.54	1
629.563	1
637.476	2
639.481	2
639.503	4
639.523	0
641.487	0
641.508	1
643.469	142
645.483	3
647.494	2
658.503	1
659.476	1
661.486	1
687.525	0
687.54	0
687.565	1
700.568	0
756.612	0
769.603	0
769.643	1
770.627	3
771.616	0
771.671	0
773.55	0
783.618	0
787.61	0
797.629	0
799.601	0
799.634	1
800.604	0
800.637	2
800.673	1
801.613	1
813.588	1
813.649	0
827.6	0
839.637	1
839.685	0
841.652	0
852.638	1
852.675	1
852.702	0
853.62	0
858.648	0
858.698	0
866.694	0
879.752	0
881.672	0
887.701	0
895.714	0
896.721	0
896.781	0
897.709	0
905.652	0
905.686	5
905.717	3
905.746	1
914.656	0
914.711	0
914.73	1
914.764	1
914.792	0
922.71	1
922.76	11
922.816	1
923.638	0
923.715	84
923.831	0
924.692	0
924.716	0
924.751	0
937.792	0
937.819	0
939.793	0
940.738	238
940.82	0
941.689	0
941.74	7
941.776	1
