Mass spectrum: TG 50:5; LC-ESI-QTOF; MS2
Name: TG 50:5
Class:  TAG
Formula: C53H92O6
Exact mass: 825.313
SMILES: CCCCCCCC\C=C/CCCCCC(=O)OCC(COC(=O)CCCCCCCCC\C=C/C=C\C=C/CC)OC(=O)CCCCC\C=C/CCCCCCCC
InChI: InChI=1S/C53H92O6/c1-4-7-10-13-16-19-22-25-26-29-31-34-37-40-43-46-52(55)58-49-50(59-53(56)47-44-41-38-35-32-28-24-21-18-15-12-9-6-3)48-57-51(54)45-42-39-36-33-30-27-23-20-17-14-11-8-5-2/h7,10,13,16,19,22,27-28,30,32,50H,4-6,8-9,11-12,14-15,17-18,20-21,23-26,29,31,33-49H2,1-3H3/b10-7-,16-13-,22-19-,30-27-,32-28-
Instrument: AB Sciex TripleTOF 5600+ system (Q-TOF) equipped with a DuoSpray ion source
Instrument type: LC-ESI-QTOF
Ms type: MS2
Ion mode: POSITIVE
Collision energy: 45V
Column name: Acquity UPLC Peptide BEH C18 column (50*2.1 mm; 1.7 um; 130A)(Waters Co.,Milford, MA, USA)
Retention time: 13.79859
Precursor type: [M+NH4]+
Precursor m/z: 842.722
Intensity: 549
m/z	relative intensity
81.068	110
95.084	79
121.103	66
161.134	77
186.998	77
211.208	62
220.97	77
237.222	108
243.208	108
261.209	79
261.221	158
263.239	77
268.997	416
302.979	108
311.259	108
317.245	108
319.258	46
351.004	155
432.985	46
433.006	93
433.022	62
466.91	54
466.961	62
514.991	93
515.014	94
543.435	141
545.44	588
545.462	616
547.446	237
547.469	490
547.482	414
547.495	144
571.44	175
571.468	999
571.487	364
571.499	125
573.479	330
573.495	222
575.502	170
597.007	77
597.458	63
597.493	695
599.504	97
696.891	31
798.655	31
799.29	62
807.729	46
825.677	332
825.708	110
842.666	108
842.711	79
842.734	239
