Mass spectrum: TG 51:3; LC-ESI-QTOF; MS2
Name: TG 51:3
Class:  TAG
Formula: C54H98O6
Exact mass: 843.372
SMILES: CCCCCCCCCCCCCCC(=O)OCC(COC(=O)CCCCCCCC\C=C/C=C\CCCCC)OC(=O)CCCCCCCCC\C=C/CCCCCC
InChI: InChI=1S/C54H98O6/c1-4-7-10-13-16-19-22-25-27-29-32-35-38-41-44-47-53(56)59-50-51(49-58-52(55)46-43-40-37-34-31-24-21-18-15-12-9-6-3)60-54(57)48-45-42-39-36-33-30-28-26-23-20-17-14-11-8-5-2/h16,19-20,22-23,25,51H,4-15,17-18,21,24,26-50H2,1-3H3/b19-16-,23-20-,25-22-
Instrument: AB Sciex TripleTOF 5600+ system (Q-TOF) equipped with a DuoSpray ion source
Instrument type: LC-ESI-QTOF
Ms type: MS2
Ion mode: POSITIVE
Collision energy: 45V
Column name: Acquity UPLC Peptide BEH C18 column (50*2.1 mm; 1.7 um; 130A)(Waters Co.,Milford, MA, USA)
Retention time: 14.35532
Precursor type: [M+NH4]+
Precursor m/z: 860.7657
Intensity: 2578
m/z	relative intensity
71.086	14
81.069	35
83.086	17
93.069	14
95.084	44
109.1	28
121.098	21
123.113	17
135.113	15
149.128	16
161.133	19
163.15	10
175.152	12
225.217	22
233.227	12
237.22	10
239.238	24
245.227	26
247.243	10
251.234	24
263.235	60
263.246	16
265.247	17
265.26	21
279.247	4
299.259	8
300.269	4
313.273	21
319.263	23
325.277	15
327.291	5
332.968	5
337.271	20
339.297	19
340.949	3
368.937	10
384.906	3
391.002	3
450.949	3
547.469	19
561.481	440
561.503	243
561.541	12
562.491	23
563.499	999
564.508	19
573.488	56
575.486	210
575.508	506
576.506	12
577.514	44
577.555	15
587.483	132
587.506	472
587.53	83
588.482	9
589.516	170
589.559	21
601.508	327
601.533	190
601.561	20
602.528	13
603.532	24
615.541	16
717.637	3
742.955	3
745.665	3
759.733	3
825.708	8
825.748	10
843.713	10
843.748	33
843.791	12
858.099	3
860.65	4
860.742	41
860.779	138
861.767	7
