Mass spectrum: TG 54:6; LC-ESI-QTOF; MS2
Name: TG 54:6
Class:  TAG
Formula: C57H98O6
Exact mass: 879.405
SMILES: CCCCCCCCCCCCCCCC(=O)OCC(COC(=O)CC\C=C/C\C=C/C\C=C/C\C=C/C\C=C/C\C=C/CC)OC(=O)CCCCCCCCCCCCCCC
InChI: InChI=1S/C57H98O6/c1-4-7-10-13-16-19-22-25-26-27-28-29-30-33-35-38-41-44-47-50-56(59)62-53-54(63-57(60)51-48-45-42-39-36-32-24-21-18-15-12-9-6-3)52-61-55(58)49-46-43-40-37-34-31-23-20-17-14-11-8-5-2/h7,10,16,19,25-26,28-29,33,35,41,44,54H,4-6,8-9,11-15,17-18,20-24,27,30-32,34,36-40,42-43,45-53H2,1-3H3/b10-7-,19-16-,26-25-,29-28-,35-33-,44-41-
Instrument: AB Sciex TripleTOF 5600+ system (Q-TOF) equipped with a DuoSpray ion source
Instrument type: LC-ESI-QTOF
Ms type: MS2
Ion mode: POSITIVE
Collision energy: 45V
Column name: Acquity UPLC Peptide BEH C18 column (50*2.1 mm; 1.7 um; 130A)(Waters Co.,Milford, MA, USA)
Retention time: 14.3634
Precursor type: [M+NH4]+
Precursor m/z: 896.7675
Intensity: 106598
m/z	relative intensity
71.05	0
71.085	18
77.037	2
79.054	9
81.07	26
83.085	17
85.064	1
85.101	18
91.054	16
93.069	11
95.085	38
97.062	1
97.1	11
99.08	0
99.116	4
105.069	8
107.084	8
109.064	0
109.1	24
111.08	1
111.116	4
113.131	1
115.053	1
117.069	10
119.084	13
121.063	0
121.101	8
123.081	0
123.116	16
125.132	4
127.147	1
128.063	1
129.069	7
131.084	16
133.1	9
135.08	2
135.116	6
137.092	0
137.131	8
139.147	2
141.069	4
141.162	0
142.077	0
143.084	7
145.101	11
147.08	2
147.117	6
149.096	2
149.131	3
151.109	0
151.147	2
153.068	1
155.085	4
155.176	0
157.1	12
159.083	1
159.116	14
161.094	3
161.131	12
163.112	2
163.149	6
165.07	1
165.166	3
167.085	4
169.1	12
171.116	19
173.098	1
173.132	16
175.111	4
175.149	11
177.128	1
177.164	1
179.178	1
181.1	10
183.116	14
185.096	1
185.13	15
187.11	5
187.147	11
189.126	7
189.162	3
191.143	1
195.115	7
197.131	11
199.113	3
199.148	14
201.127	5
201.164	22
203.142	3
203.179	5
207.115	0
209.131	14
211.147	18
211.201	0
213.129	3
213.163	19
214.171	0
215.143	3
215.179	15
217.158	2
221.135	0
221.226	8
223.149	17
225.165	10
227.142	3
227.179	32
229.157	7
229.196	1
231.173	1
235.144	0
235.156	0
237.164	10
239.143	0
239.179	4
239.237	94
241.159	10
241.191	3
243.174	2
245.19	0
249.164	1
250.171	0
251.179	9
253.196	2
255.172	3
255.209	0
256.262	3
257.191	1
257.247	3
263.178	0
263.238	0
265.194	6
267.21	6
267.267	0
269.186	2
269.225	19
277.195	0
279.179	0
279.21	0
281.196	0
281.228	0
281.286	0
283.207	4
283.24	10
285.181	0
285.236	0
285.252	0
289.187	0
291.203	1
291.216	1
293.226	81
294.23	0
295.239	0
295.263	0
297.186	0
297.27	0
297.285	0
299.2	0
299.297	0
303.212	0
305.22	0
307.203	0
309.206	0
309.222	2
310.267	0
311.237	117
312.231	0
312.292	0
312.315	0
313.227	0
313.273	130
314.275	1
321.221	0
325.225	0
327.232	0
327.248	0
329.248	0
335.182	1
337.273	0
339.288	0
341.266	0
341.302	1
341.319	0
349.247	0
355.293	0
367.261	6
367.283	13
379.329	0
383.256	2
385.265	1
385.282	1
393.298	0
409.327	0
409.35	0
413.378	0
421.317	0
421.381	0
423.348	0
427.374	0
433.319	0
435.358	0
439.402	0
441.407	0
447.342	0
447.404	0
449.356	0
449.389	0
451.381	0
453.41	0
459.343	1
459.362	0
461.363	0
463.371	0
463.402	0
465.392	0
465.417	0
473.355	0
475.379	0
487.361	0
487.386	0
489.391	0
499.374	0
501.387	0
501.41	0
503.392	0
507.446	0
513.395	0
513.446	0
515.391	0
515.426	0
527.391	0
527.42	0
531.441	1
531.456	2
539.41	0
541.422	0
549.444	1
549.467	4
549.49	1
549.735	0
549.774	1
549.799	1
550.496	0
550.571	0
551.357	0
551.5	999
552.164	0
552.276	0
552.502	15
553.431	0
557.463	0
561.476	0
561.5	1
562.471	0
562.496	3
563.488	1
563.51	0
564.491	2
564.51	3
564.534	0
574.491	1
575.51	1
576.5	4
576.525	1
577.506	0
587.501	1
588.49	2
588.521	2
590.522	0
590.538	0
595.448	2
595.468	4
595.483	1
595.501	0
597.445	0
599.482	0
599.512	0
601.51	0
601.536	0
602.494	0
602.527	2
621.531	0
621.546	1
621.572	1
623.288	0
623.501	633
624.091	0
624.504	7
624.543	0
625.496	0
639.497	1
641.499	1
641.517	1
651.514	1
651.538	5
697.529	0
711.609	0
741.638	0
755.62	0
757.631	0
769.632	0
783.657	0
795.665	0
797.654	0
797.687	0
809.638	0
809.668	0
828.715	0
837.68	0
844.704	0
844.752	0
861.702	1
861.73	2
861.751	2
861.803	0
876.991	0
877.762	0
879.739	51
880.701	0
880.738	0
893.96	0
895.704	0
896.588	0
896.766	136
896.831	0
897.737	0
897.763	1
897.785	0
897.807	0
