Mass spectrum: TG 58:11; LC-ESI-QTOF; MS2
Name: TG 58:11
Class:  TAG
Formula: C61H96O6
Exact mass: 925.433
SMILES: CCCCCC\C=C/CCCCCCCCCC(=O)OCC(COC(=O)CCC\C=C/C\C=C/C\C=C/C\C=C/C\C=C/CC)OC(=O)CCC\C=C/C\C=C/C\C=C/C\C=C/C\C=C/CC
InChI: InChI=1S/C61H96O6/c1-4-7-10-13-16-19-22-25-28-30-33-36-39-42-45-48-51-54-60(63)66-57-58(56-65-59(62)53-50-47-44-41-38-35-32-27-24-21-18-15-12-9-6-3)67-61(64)55-52-49-46-43-40-37-34-31-29-26-23-20-17-14-11-8-5-2/h7-8,10-11,16-17,19-21,24-26,28-29,33-34,36-37,42-43,45-46,58H,4-6,9,12-15,18,22-23,27,30-32,35,38-41,44,47-57H2,1-3H3/b10-7-,11-8-,19-16-,20-17-,24-21-,28-25-,29-26-,36-33-,37-34-,45-42-,46-43-
Instrument: AB Sciex TripleTOF 5600+ system (Q-TOF) equipped with a DuoSpray ion source
Instrument type: LC-ESI-QTOF
Ms type: MS2
Ion mode: POSITIVE
Collision energy: 45V
Column name: Acquity UPLC Peptide BEH C18 column (50*2.1 mm; 1.7 um; 130A)(Waters Co.,Milford, MA, USA)
Retention time: 13.80113
Precursor type: [M+NH4]+
Precursor m/z: 942.754
Intensity: 2287
m/z	relative intensity
79.055	19
81.07	36
91.055	17
93.069	23
95.086	36
107.085	15
109.098	18
119.084	14
121.1	23
123.115	17
131.085	19
133.1	20
135.118	21
147.114	13
149.134	12
159.116	20
161.134	22
163.147	16
171.116	17
173.131	26
175.144	20
181.101	13
185.133	24
187.148	19
197.132	16
199.151	12
201.161	23
209.13	15
211.148	17
213.162	19
215.182	17
223.142	14
227.178	21
241.159	11
261.22	28
261.231	12
263.237	29
267.212	14
269.224	17
279.218	6
283.245	8
285.225	6
291.207	9
293.227	41
295.242	5
309.227	12
311.234	58
311.265	10
317.246	17
319.261	11
335.243	15
335.264	28
337.272	63
337.297	8
367.258	6
385.272	8
391.287	6
548.464	11
571.434	5
573.459	8
573.489	16
574.468	13
574.495	19
595.457	6
595.486	8
596.457	7
596.487	8
597.482	999
597.509	164
598.475	31
598.502	22
621.487	20
622.517	5
623.477	6
623.508	16
645.482	181
646.488	8
647.502	303
648.507	19
663.507	7
761.571	2
801.609	5
817.617	2
827.629	3
827.683	2
829.614	2
855.625	5
860.707	2
869.692	2
872.681	9
876.72	4
893.74	9
907.683	6
907.737	9
925.693	17
925.726	64
925.771	18
925.797	9
942.696	40
942.745	353
942.779	142
942.812	15
943.683	5
943.733	9
943.769	9
