Mass spectrum: TG 56:4; LC-ESI-QTOF; MS2
Name: TG 56:4
Class:  TAG
Formula: C59H106O6
Exact mass: 911.491
SMILES: CCCCCC\C=C/CCCCCCCCCC(=O)OCC(COC(=O)CCCCCCCCC\C=C/C\C=C/CCCCC)OC(=O)CCCCCCCCC\C=C/CCCCCC
InChI: InChI=1S/C59H106O6/c1-4-7-10-13-16-19-22-25-28-29-32-34-37-40-43-46-49-52-58(61)64-55-56(65-59(62)53-50-47-44-41-38-35-31-27-24-21-18-15-12-9-6-3)54-63-57(60)51-48-45-42-39-36-33-30-26-23-20-17-14-11-8-5-2/h16,19-21,23-25,28,56H,4-15,17-18,22,26-27,29-55H2,1-3H3/b19-16-,23-20-,24-21-,28-25-
Instrument: AB Sciex TripleTOF 5600+ system (Q-TOF) equipped with a DuoSpray ion source
Instrument type: LC-ESI-QTOF
Ms type: MS2
Ion mode: POSITIVE
Collision energy: 45V
Column name: Acquity UPLC Peptide BEH C18 column (50*2.1 mm; 1.7 um; 130A)(Waters Co.,Milford, MA, USA)
Retention time: 14.90156
Precursor type: [M+NH4]+
Precursor m/z: 928.8304
Intensity: 27144
m/z	relative intensity
71.085	1
77.038	0
79.053	4
81.069	21
83.085	10
85.062	0
85.101	1
91.054	2
93.07	6
95.085	23
97.064	1
97.101	10
99.081	1
105.071	1
107.085	4
109.101	14
111.079	1
111.116	4
113.094	1
119.085	1
121.101	11
123.116	10
125.095	0
125.13	0
125.139	0
127.11	0
133.1	2
135.116	10
137.131	4
139.11	0
141.126	1
147.116	2
149.132	8
151.148	4
153.126	1
155.147	0
161.132	4
163.147	7
165.164	4
167.141	1
173.132	1
175.148	6
177.162	3
179.178	2
181.159	1
187.149	0
189.161	1
189.172	0
191.177	2
193.16	0
193.194	1
195.174	0
201.162	0
203.179	1
204.179	0
205.197	1
207.171	0
209.193	0
217.191	0
219.213	0
233.227	0
237.222	0
243.206	0
245.226	14
247.243	10
249.184	0
261.211	0
261.227	1
263.198	0
263.237	45
265.252	38
267.269	0
269.226	0
270.228	0
271.239	0
273.255	0
275.272	8
277.216	0
279.233	0
280.265	0
282.28	0
287.239	0
288.246	0
289.247	0
289.259	0
291.267	3
291.285	0
293.284	29
301.25	0
305.268	0
310.309	0
311.264	0
313.282	0
317.29	0
319.262	10
321.278	2
321.294	0
321.314	0
335.256	0
337.273	11
339.288	22
340.293	0
341.307	0
342.303	0
347.293	1
349.31	3
351.338	0
365.302	1
367.32	20
369.335	0
391.28	0
415.385	0
445.41	0
463.383	0
477.386	0
489.411	0
491.417	0
505.426	0
509.471	0
517.437	0
519.438	0
519.468	0
527.476	1
527.495	1
531.453	0
533.457	0
537.484	0
537.518	0
545.45	0
545.489	1
545.506	0
547.464	0
555.494	1
555.515	3
557.528	1
573.486	9
573.534	2
575.498	5
575.524	1
577.504	1
577.534	1
581.525	0
587.508	0
589.514	0
591.543	0
599.504	12
599.622	1
599.648	1
601.304	0
601.517	952
602.521	16
603.533	90
604.522	0
604.552	0
605.529	2
605.555	6
606.538	0
607.54	1
607.565	1
607.591	0
613.536	0
615.53	1
617.523	0
617.54	0
617.561	0
619.524	0
626.512	0
626.536	0
627.51	6
627.537	19
627.596	1
628.525	0
628.555	0
629.548	999
630.548	23
631.565	854
632.566	11
632.594	2
632.619	0
633.563	0
643.55	0
645.513	0
645.538	0
645.561	0
645.582	1
647.549	1
655.56	7
655.593	1
657.571	4
657.592	4
657.62	0
659.598	0
671.605	0
673.541	0
673.612	0
675.558	0
683.588	0
685.568	0
685.614	0
687.562	0
689.57	0
699.613	0
701.575	0
715.584	0
727.664	0
741.656	0
743.615	0
755.668	0
757.639	0
771.646	0
785.642	0
785.671	0
785.732	0
787.673	0
799.657	0
799.697	0
801.685	0
813.695	0
813.732	0
827.708	0
827.752	0
881.754	0
893.748	0
893.792	12
893.862	0
894.796	0
895.772	5
908.934	0
911.807	88
912.783	0
912.828	1
925.915	0
925.954	0
926.937	0
928.587	0
928.694	0
928.721	0
928.833	217
928.925	0
929.797	1
929.827	3
929.857	1
929.881	0
