Mass spectrum: TG 60:10; LC-ESI-QTOF; MS2
Name: TG 60:10
Class:  TAG
Formula: C63H102O6
Exact mass: 955.503
SMILES: CCCCCCCCCCCCCCCC(=O)OCC(COC(=O)CCCCC\C=C/C\C=C/C\C=C/C\C=C/C\C=C/CC)OC(=O)CCCCC\C=C/C\C=C/C\C=C/C\C=C/C\C=C/CC
InChI: InChI=1S/C63H102O6/c1-4-7-10-13-16-19-22-25-27-29-31-33-35-38-41-44-47-50-53-56-62(65)68-59-60(58-67-61(64)55-52-49-46-43-40-37-24-21-18-15-12-9-6-3)69-63(66)57-54-51-48-45-42-39-36-34-32-30-28-26-23-20-17-14-11-8-5-2/h7-8,10-11,16-17,19-20,25-28,31-34,38-39,41-42,60H,4-6,9,12-15,18,21-24,29-30,35-37,40,43-59H2,1-3H3/b10-7-,11-8-,19-16-,20-17-,27-25-,28-26-,33-31-,34-32-,41-38-,42-39-
Instrument: AB Sciex TripleTOF 5600+ system (Q-TOF) equipped with a DuoSpray ion source
Instrument type: LC-ESI-QTOF
Ms type: MS2
Ion mode: POSITIVE
Collision energy: 45V
Column name: Acquity UPLC Peptide BEH C18 column (50*2.1 mm; 1.7 um; 130A)(Waters Co.,Milford, MA, USA)
Retention time: 14.2259
Precursor type: [M+NH4]+
Precursor m/z: 972.7954
Intensity: 1765
m/z	relative intensity
81.069	45
91.055	56
105.067	37
119.085	38
121.102	34
131.083	38
133.099	35
171.115	32
175.149	56
185.133	52
187.147	45
189.166	41
199.144	45
201.165	38
203.17	52
203.183	119
215.177	38
263.238	66
269.227	104
285.206	13
285.223	27
287.24	119
295.25	17
297.257	48
301.251	14
313.252	27
315.275	41
337.266	108
337.281	115
339.283	27
339.295	31
365.306	20
371.294	22
387.286	17
389.302	56
597.492	13
623.484	182
623.514	260
624.505	29
625.508	132
625.535	59
627.518	38
627.559	20
649.513	41
651.515	618
651.541	999
652.538	52
653.546	48
669.53	37
673.495	34
673.532	34
675.503	35
675.526	133
675.548	172
699.551	17
803.68	6
851.73	6
852.718	7
857.669	6
890.703	25
890.738	34
890.764	17
902.716	20
955.716	27
955.774	119
955.805	137
956.771	17
967.682	31
967.728	24
972.758	170
972.794	664
972.836	155
973.775	20
973.821	30
