Mass spectrum: TG 53:4; LC-ESI-QTOF; MS2
Name: TG 53:4
Class:  TAG
Formula: C56H100O6
Exact mass: 869.41
SMILES: CCCCCCCCCCCCCCCCC(=O)OCC(COC(=O)CCCCCCCC\C=C/C=C\CCCCC)OC(=O)CCCCCCCC\C=C/C=C\CCCCC
InChI: InChI=1S/C56H100O6/c1-4-7-10-13-16-19-22-25-28-31-34-37-40-43-46-49-55(58)61-52-53(51-60-54(57)48-45-42-39-36-33-30-27-24-21-18-15-12-9-6-3)62-56(59)50-47-44-41-38-35-32-29-26-23-20-17-14-11-8-5-2/h16-17,19-20,22-23,25-26,53H,4-15,18,21,24,27-52H2,1-3H3/b19-16-,20-17-,25-22-,26-23-
Instrument: AB Sciex TripleTOF 5600+ system (Q-TOF) equipped with a DuoSpray ion source
Instrument type: LC-ESI-QTOF
Ms type: MS2
Ion mode: POSITIVE
Collision energy: 45V
Column name: Acquity UPLC Peptide BEH C18 column (50*2.1 mm; 1.7 um; 130A)(Waters Co.,Milford, MA, USA)
Retention time: 14.38953
Precursor type: [M+NH4]+
Precursor m/z: 886.7849
Intensity: 6730
m/z	relative intensity
71.087	4
79.052	5
81.071	28
83.084	11
93.071	7
95.086	26
97.101	7
107.084	4
109.101	14
119.081	4
121.101	14
123.118	13
135.117	10
137.131	6
147.115	5
149.131	9
151.149	4
161.133	8
163.149	6
165.163	7
175.151	6
177.164	6
189.165	7
226.986	6
233.222	7
245.225	13
247.242	10
251.239	24
253.257	4
261.217	8
263.236	45
265.249	19
265.264	8
268.996	4
273.185	2
279.273	3
285.219	2
301.216	3
307.27	2
308.979	2
311.252	4
317.245	2
319.265	16
321.279	2
325.272	12
327.292	8
335.265	3
337.276	22
339.286	15
339.303	9
390.986	6
472.995	3
513.474	3
515.477	5
525.471	6
545.477	4
547.48	3
551.5	4
561.481	8
563.505	10
564.461	3
565.52	6
573.489	57
575.506	16
577.515	6
577.54	4
585.659	3
587.502	587
587.7	5
588.503	5
589.517	999
590.515	7
591.515	6
591.542	17
599.499	232
601.516	611
602.519	3
603.505	7
603.528	19
603.552	5
613.508	12
613.535	7
615.498	6
615.53	32
615.554	24
617.53	3
619.533	3
627.53	9
757.621	2
771.643	2
785.665	3
801.679	26
801.708	17
801.73	7
802.7	2
803.69	3
804.674	10
804.698	16
804.735	6
804.755	3
827.704	5
828.726	8
851.757	11
863.74	3
869.734	50
869.752	31
869.773	56
869.826	3
884.021	1
886.662	3
886.731	19
886.773	154
886.808	46
