Mass spectrum: TG 49:2; LC-ESI-QTOF; MS2
Name: TG 49:2
Class:  TAG
Formula: C52H96O6
Exact mass: 817.3340000000001
SMILES: CCCCCCCCCCCCCCCC(=O)OC(COC(=O)CCCCCCCCCCCCCC)COC(=O)CCCCCCCC\C=C/C=C\CCCCC
InChI: InChI=1S/C52H96O6/c1-4-7-10-13-16-19-22-25-26-28-30-33-36-39-42-45-51(54)57-48-49(47-56-50(53)44-41-38-35-32-29-24-21-18-15-12-9-6-3)58-52(55)46-43-40-37-34-31-27-23-20-17-14-11-8-5-2/h16,19,22,25,49H,4-15,17-18,20-21,23-24,26-48H2,1-3H3/b19-16-,25-22-
Instrument: AB Sciex TripleTOF 5600+ system (Q-TOF) equipped with a DuoSpray ion source
Instrument type: LC-ESI-QTOF
Ms type: MS2
Ion mode: POSITIVE
Collision energy: 45V
Column name: Acquity UPLC Peptide BEH C18 column (50*2.1 mm; 1.7 um; 130A)(Waters Co.,Milford, MA, USA)
Retention time: 14.3148
Precursor type: [M+NH4]+
Precursor m/z: 834.7535
Intensity: 12491
m/z	relative intensity
71.085	11
81.069	24
83.084	16
85.1	11
93.07	4
95.086	32
97.1	16
109.101	27
111.115	6
121.1	7
123.117	19
125.132	4
133.101	4
135.115	9
137.133	6
151.146	4
161.133	5
163.147	6
175.148	7
189.164	4
225.221	25
225.231	10
237.22	6
239.236	34
242.25	4
245.23	14
263.237	52
265.253	5
285.256	1
299.252	8
299.265	9
311.262	2
313.266	12
313.279	12
319.264	10
325.269	1
329.321	5
337.271	2
339.29	5
521.454	3
533.443	3
533.466	6
535.443	8
535.472	55
535.526	2
535.804	5
537.487	750
538.479	3
547.47	39
547.5	3
549.491	102
550.475	2
550.511	2
551.486	7
551.508	18
551.526	3
559.734	4
561.487	999
563.497	129
563.526	23
572.471	6
573.719	3
575.502	913
576.508	3
577.489	3
577.523	45
578.521	6
579.543	3
589.504	24
589.526	34
600.508	2
603.527	6
617.545	2
799.716	3
817.71	6
817.739	4
817.771	1
826.095	1
827.708	0
828.53	0
828.652	2
828.693	29
828.722	63
829.09	0
834.544	0
834.605	2
834.751	111
