Mass spectrum: TG 49:0; LC-ESI-QTOF; MS2
Name: TG 49:0
Class:  TAG
Formula: C52H100O6
Exact mass: 821.366
SMILES: CCCCCCCCCCCCCCCCCC(=O)OCC(COC(=O)CCCCCCCCCCCCCC)OC(=O)CCCCCCCCCCCCCCC
InChI: InChI=1S/C52H100O6/c1-4-7-10-13-16-19-22-25-26-28-30-33-36-39-42-45-51(54)57-48-49(47-56-50(53)44-41-38-35-32-29-24-21-18-15-12-9-6-3)58-52(55)46-43-40-37-34-31-27-23-20-17-14-11-8-5-2/h49H,4-48H2,1-3H3
Instrument: AB Sciex TripleTOF 5600+ system (Q-TOF) equipped with a DuoSpray ion source
Instrument type: LC-ESI-QTOF
Ms type: MS2
Ion mode: POSITIVE
Collision energy: 45V
Column name: Acquity UPLC Peptide BEH C18 column (50*2.1 mm; 1.7 um; 130A)(Waters Co.,Milford, MA, USA)
Retention time: 14.94507
Precursor type: [M+NH4]+
Precursor m/z: 838.783
Intensity: 2180
m/z	relative intensity
71.085	22
81.066	19
83.085	22
85.1	15
95.088	36
97.102	23
109.102	19
123.114	25
186.995	45
187.007	13
239.233	61
253.251	28
268.995	51
269.008	29
292.954	6
310.898	6
313.274	16
316.923	7
433.012	6
523.473	16
537.485	191
537.504	55
551.5	704
551.54	22
563.741	6
565.491	152
565.497	241
565.511	999
565.534	433
566.536	15
579.517	52
579.539	153
593.538	35
653.552	9
773.528	12
838.737	20
838.774	42
