Mass spectrum: TG 49:3; LC-ESI-QTOF; MS2
Name: TG 49:3
Class:  TAG
Formula: C52H94O6
Exact mass: 815.318
SMILES: CCCCCCCCCCCCCC(=O)OCC(COC(=O)CCCCCCCCC\C=C/CCCCCC)OC(=O)CCCCCCCCC\C=C/C\C=C/CC
InChI: InChI=1S/C52H94O6/c1-4-7-10-13-16-19-22-24-26-28-30-33-36-39-42-45-51(54)57-48-49(47-56-50(53)44-41-38-35-32-29-21-18-15-12-9-6-3)58-52(55)46-43-40-37-34-31-27-25-23-20-17-14-11-8-5-2/h8,11,17,19-20,22,49H,4-7,9-10,12-16,18,21,23-48H2,1-3H3/b11-8-,20-17-,22-19-
Instrument: AB Sciex TripleTOF 5600+ system (Q-TOF) equipped with a DuoSpray ion source
Instrument type: LC-ESI-QTOF
Ms type: MS2
Ion mode: POSITIVE
Collision energy: 45V
Column name: Acquity UPLC Peptide BEH C18 column (50*2.1 mm; 1.7 um; 130A)(Waters Co.,Milford, MA, USA)
Retention time: 14.05054
Precursor type: [M+NH4]+
Precursor m/z: 832.7344
Intensity: 1124
m/z	relative intensity
95.085	237
97.1	78
109.096	117
221.194	117
237.214	64
263.237	176
265.247	78
285.242	78
299.262	58
311.262	45
313.278	156
337.272	39
339.287	139
435.351	39
533.454	380
533.484	198
535.448	341
535.47	999
535.494	417
537.475	117
547.456	278
547.494	217
559.462	443
559.487	260
561.47	298
561.493	721
563.502	117
573.483	719
573.515	339
575.512	356
577.494	137
577.517	378
577.533	278
577.55	119
587.495	523
587.521	303
601.506	137
601.539	215
797.684	39
815.692	78
832.607	39
832.741	276
