Mass spectrum: PG 32:1; LC-ESI-QTOF; MS2
Name: PG 32:1
Class:  PG
Formula: C38H73O10P
Exact mass: 720.968
SMILES: CCCCCCCCCCCCCCCC(=O)OCC(COP(O)(=O)OCC(O)CO)OC(=O)CCCCCCC\C=C/CCCCCC
InChI: InChI=1S/C38H73O10P/c1-3-5-7-9-11-13-15-17-19-21-23-25-27-29-37(41)45-33-36(34-47-49(43,44)46-32-35(40)31-39)48-38(42)30-28-26-24-22-20-18-16-14-12-10-8-6-4-2/h14,16,35-36,39-40H,3-13,15,17-34H2,1-2H3,(H,43,44)/b16-14-
Instrument: AB Sciex TripleTOF 5600+ system (Q-TOF) equipped with a DuoSpray ion source
Instrument type: LC-ESI-QTOF
Ms type: MS2
Ion mode: POSITIVE
Collision energy: 45V
Column name: Acquity UPLC Peptide BEH C18 column (50*2.1 mm; 1.7 um; 130A)(Waters Co.,Milford, MA, USA)
Retention time: 8.246248
Precursor type: [M+NH4]+
Precursor m/z: 738.5267
Intensity: 12550
m/z	relative intensity
71.084	6
79.054	1
81.07	9
83.082	6
83.089	5
85.067	1
85.1	5
93.069	2
95.085	14
97.1	7
107.084	2
109.103	8
111.116	4
121.101	7
123.109	1
123.117	3
125.135	1
135.117	6
137.132	5
149.133	3
151.145	1
163.146	1
165.161	1
167.14	1
177.164	1
219.211	9
221.228	2
237.222	23
239.228	11
239.24	17
293.25	0
295.266	0
297.278	0
311.257	25
313.272	17
393.24	0
447.252	1
449.264	1
475.45	0
547.745	0
547.772	1
547.793	1
549.115	1
549.487	999
549.559	0
549.882	0
550.487	0
623.523	0
685.489	2
