Mass spectrum: TG 54:1; LC-ESI-QTOF; MS2
Name: TG 54:1
Class:  TAG
Formula: C57H108O6
Exact mass: 889.485
SMILES: CCCCCCCCCCCCCCCCCCCC(=O)OCC(COC(=O)CCCCCCCCCCCCCCC)OC(=O)CCCCCCCCC\C=C/CCCCCC
InChI: InChI=1S/C57H108O6/c1-4-7-10-13-16-19-22-25-27-28-30-32-35-38-41-44-47-50-56(59)62-53-54(52-61-55(58)49-46-43-40-37-34-31-24-21-18-15-12-9-6-3)63-57(60)51-48-45-42-39-36-33-29-26-23-20-17-14-11-8-5-2/h20,23,54H,4-19,21-22,24-53H2,1-3H3/b23-20-
Instrument: AB Sciex TripleTOF 5600+ system (Q-TOF) equipped with a DuoSpray ion source
Instrument type: LC-ESI-QTOF
Ms type: MS2
Ion mode: POSITIVE
Collision energy: 45V
Column name: Acquity UPLC Peptide BEH C18 column (50*2.1 mm; 1.7 um; 130A)(Waters Co.,Milford, MA, USA)
Retention time: 15.60757
Precursor type: [M+NH4]+
Precursor m/z: 906.8521
Intensity: 528
m/z	relative intensity
71.086	8
81.071	14
83.085	12
85.101	10
95.085	20
97.099	12
109.1	15
111.117	7
123.115	10
135.12	5
165.164	5
186.999	8
221.227	8
226.988	16
239.16	12
239.236	25
240.174	4
247.243	13
265.255	39
267.265	5
269.0	12
292.959	5
293.286	8
295.296	9
313.273	10
321.272	4
321.312	5
328.988	4
339.288	7
341.304	4
344.986	3
369.334	16
448.945	4
549.476	23
551.479	12
551.505	47
551.534	9
577.517	917
578.515	14
578.536	7
579.53	53
579.549	21
579.57	5
605.549	418
606.55	15
607.555	629
607.578	391
608.556	10
608.58	18
633.577	999
633.601	303
634.573	16
634.599	18
635.587	12
635.617	3
661.606	9
678.924	2
712.952	2
738.957	2
871.735	2
889.824	11
906.662	3
906.745	11
906.825	79
906.848	96
906.878	50
907.823	7
