Mass spectrum: TG 56:2; LC-ESI-QTOF; MS2
Name: TG 56:2
Class:  TAG
Formula: C59H110O6
Exact mass: 915.523
SMILES: CCCCCCCCCCCCCCCC(=O)OCC(COC(=O)CCCCCCCCC\C=C/CCCCCCCC)OC(=O)CCCCCCCCC\C=C/CCCCCCCC
InChI: InChI=1S/C59H110O6/c1-4-7-10-13-16-19-22-25-27-29-31-34-37-40-43-46-49-52-58(61)64-55-56(54-63-57(60)51-48-45-42-39-36-33-24-21-18-15-12-9-6-3)65-59(62)53-50-47-44-41-38-35-32-30-28-26-23-20-17-14-11-8-5-2/h25-28,56H,4-24,29-55H2,1-3H3/b27-25-,28-26-
Instrument: AB Sciex TripleTOF 5600+ system (Q-TOF) equipped with a DuoSpray ion source
Instrument type: LC-ESI-QTOF
Ms type: MS2
Ion mode: POSITIVE
Collision energy: 45V
Column name: Acquity UPLC Peptide BEH C18 column (50*2.1 mm; 1.7 um; 130A)(Waters Co.,Milford, MA, USA)
Retention time: 15.64436
Precursor type: [M+NH4]+
Precursor m/z: 932.8647
Intensity: 1571
m/z	relative intensity
83.087	15
85.099	11
95.086	21
109.101	26
135.115	14
226.984	13
239.24	14
247.24	10
263.23	26
265.248	21
265.26	29
267.272	31
269.006	23
275.275	13
293.284	29
321.319	5
339.289	21
341.295	10
369.338	13
575.497	72
575.524	45
577.512	75
577.526	21
577.541	40
603.513	108
603.52	116
603.527	139
603.537	240
603.548	126
603.555	76
605.518	44
605.525	60
605.532	131
605.551	547
605.586	108
631.551	554
631.567	277
631.574	184
631.581	158
631.589	102
633.577	999
633.597	191
634.583	29
635.573	64
635.589	234
635.616	99
659.586	166
659.603	64
659.61	51
659.617	32
659.627	42
846.994	5
927.746	29
927.761	21
927.779	45
927.791	26
927.799	32
927.808	23
932.826	29
932.839	80
932.851	51
932.86	61
932.871	101
932.882	59
932.89	53
932.901	48
932.912	18
932.92	13
