Mass spectrum: TG 58:4; LC-ESI-QTOF; MS2
Name: TG 58:4
Class:  TAG
Formula: C61H110O6
Exact mass: 939.545
SMILES: CCCCCC\C=C/CCCCCCCCCC(=O)OCC(COC(=O)CCCCCCCCCCCC\C=C/C=C\CCCCC)OC(=O)CCCCCCCCC\C=C/CCCCCC
InChI: InChI=1S/C61H110O6/c1-4-7-10-13-16-19-22-25-28-29-30-31-34-36-39-42-45-48-51-54-60(63)66-57-58(67-61(64)55-52-49-46-43-40-37-33-27-24-21-18-15-12-9-6-3)56-65-59(62)53-50-47-44-41-38-35-32-26-23-20-17-14-11-8-5-2/h16,19-25,58H,4-15,17-18,26-57H2,1-3H3/b19-16-,23-20-,24-21-,25-22-
Instrument: AB Sciex TripleTOF 5600+ system (Q-TOF) equipped with a DuoSpray ion source
Instrument type: LC-ESI-QTOF
Ms type: MS2
Ion mode: POSITIVE
Collision energy: 45V
Column name: Acquity UPLC Peptide BEH C18 column (50*2.1 mm; 1.7 um; 130A)(Waters Co.,Milford, MA, USA)
Retention time: 14.94279
Precursor type: [M+NH4]+
Precursor m/z: 956.856
Intensity: 1506
m/z	relative intensity
81.07	25
162.139	22
186.996	21
205.198	21
226.99	35
246.23	35
263.243	43
264.242	44
268.999	35
292.953	21
313.263	15
319.266	28
320.285	21
321.312	37
322.326	21
337.278	28
338.278	21
339.285	28
340.292	21
432.999	28
599.5	136
600.462	43
600.491	130
600.509	278
600.538	50
601.487	114
601.516	355
603.502	64
603.533	121
604.531	28
605.544	64
614.534	64
627.539	44
628.543	100
629.522	64
629.558	86
630.557	71
631.562	179
633.578	86
656.568	64
657.56	123
657.58	233
658.57	218
658.593	999
659.581	591
659.603	226
702.981	14
848.926	14
855.739	14
869.758	100
870.748	585
870.779	634
870.818	71
871.766	35
874.771	28
921.819	28
939.794	130
939.836	255
939.884	43
952.822	97
956.761	200
956.789	86
956.817	203
956.839	298
956.871	437
956.896	160
956.937	35
957.848	35
