Mass spectrum: TG 51:1; LC-ESI-QTOF; MS2
Name: TG 51:1
Class:  TAG
Formula: C54H102O6
Exact mass: 847.404
SMILES: CCCCCCCCCCCCCCCCCC(=O)OC(COC(=O)CCCCCCCCCCCCCC)COC(=O)CCCCCCCCC\C=C/CCCCCC
InChI: InChI=1S/C54H102O6/c1-4-7-10-13-16-19-22-25-27-29-32-35-38-41-44-47-53(56)59-50-51(49-58-52(55)46-43-40-37-34-31-24-21-18-15-12-9-6-3)60-54(57)48-45-42-39-36-33-30-28-26-23-20-17-14-11-8-5-2/h19,22,51H,4-18,20-21,23-50H2,1-3H3/b22-19-
Instrument: AB Sciex TripleTOF 5600+ system (Q-TOF) equipped with a DuoSpray ion source
Instrument type: LC-ESI-QTOF
Ms type: MS2
Ion mode: POSITIVE
Collision energy: 45V
Column name: Acquity UPLC Peptide BEH C18 column (50*2.1 mm; 1.7 um; 130A)(Waters Co.,Milford, MA, USA)
Retention time: 14.99014
Precursor type: [M+NH4]+
Precursor m/z: 864.7953
Intensity: 162
m/z	relative intensity
184.975	85
186.995	85
226.986	212
239.237	127
256.996	85
265.253	212
269.003	468
292.964	659
332.96	85
351.012	85
368.958	85
388.984	97
433.007	255
456.975	212
470.988	85
475.02	85
538.976	140
549.473	85
551.488	127
563.497	255
565.523	825
577.51	646
579.548	85
591.516	340
591.544	999
605.552	302
678.956	85
864.819	225
865.744	140
