Mass spectrum: TG 54:3; LC-ESI-QTOF; MS2
Name: TG 54:3
Class:  TAG
Formula: C57H104O6
Exact mass: 885.453
SMILES: CCCCCC\C=C/CCCCCCCCCC(=O)OCC(COC(=O)CCCCCCCCC\C=C/CCCCCC)OC(=O)CCCCCCCCC\C=C/CCCCCC
InChI: InChI=1S/C57H104O6/c1-4-7-10-13-16-19-22-25-28-31-34-37-40-43-46-49-55(58)61-52-54(63-57(60)51-48-45-42-39-36-33-30-27-24-21-18-15-12-9-6-3)53-62-56(59)50-47-44-41-38-35-32-29-26-23-20-17-14-11-8-5-2/h19-24,54H,4-18,25-53H2,1-3H3/b22-19-,23-20-,24-21-
Instrument: AB Sciex TripleTOF 5600+ system (Q-TOF) equipped with a DuoSpray ion source
Instrument type: LC-ESI-QTOF
Ms type: MS2
Ion mode: POSITIVE
Collision energy: 45V
Column name: Acquity UPLC Peptide BEH C18 column (50*2.1 mm; 1.7 um; 130A)(Waters Co.,Milford, MA, USA)
Retention time: 14.85575
Precursor type: [M+NH4]+
Precursor m/z: 902.8167
Intensity: 105367
m/z	relative intensity
71.048	0
71.086	5
77.039	1
79.055	5
81.07	26
83.051	0
83.086	22
85.065	1
85.101	3
91.054	1
93.07	10
95.086	38
97.065	1
97.102	21
99.081	1
99.118	0
105.069	0
107.087	7
109.101	24
111.081	2
111.117	12
113.097	1
113.133	0
119.085	0
121.102	23
123.118	12
125.096	1
125.133	3
127.113	2
133.099	0
135.117	24
137.133	5
139.111	2
139.15	0
141.127	1
147.114	1
147.125	0
149.133	13
151.149	7
153.129	5
155.139	0
161.13	1
163.149	10
165.164	7
167.144	2
169.16	0
173.135	0
175.144	1
175.154	1
177.163	5
179.179	2
179.19	0
181.158	1
183.173	0
187.152	0
189.161	1
191.179	3
193.16	0
193.195	1
195.174	1
203.183	0
205.196	2
209.191	0
219.217	0
221.23	0
237.222	1
239.239	5
245.229	5
247.244	48
248.248	1
249.253	0
263.239	18
264.43	0
265.254	160
266.259	2
267.269	5
275.274	1
279.236	0
282.275	1
282.288	1
284.288	0
284.304	0
285.263	0
291.27	0
293.285	4
301.256	0
303.263	0
307.258	0
311.261	0
313.268	0
313.279	2
313.291	0
319.265	4
321.281	7
323.299	1
335.257	0
337.277	3
339.291	65
340.282	0
340.303	0
341.307	6
347.296	0
349.322	0
365.297	0
367.308	0
367.328	1
389.389	0
393.305	0
417.409	0
429.42	0
431.404	0
511.496	0
527.489	1
529.5	4
529.516	1
545.497	0
547.471	0
547.501	1
549.503	0
555.507	0
573.478	1
573.504	0
575.506	140
576.505	6
576.528	3
576.552	0
577.523	65
578.53	12
579.564	1
580.519	1
580.551	4
580.58	0
589.523	0
599.643	0
601.521	271
601.635	1
601.669	1
602.522	2
602.58	0
603.41	2
603.535	999
604.184	0
604.345	0
604.55	88
604.779	2
605.14	0
605.16	0
605.319	0
605.549	319
606.558	3
606.592	0
607.361	0
607.563	0
619.579	0
621.554	0
629.552	108
630.571	0
631.57	36
657.595	0
675.557	0
677.576	0
689.567	0
705.608	0
747.662	0
759.708	0
773.671	0
801.731	0
842.767	0
867.733	0
867.771	5
867.8	2
867.824	1
867.879	0
885.798	53
885.853	1
886.767	0
886.795	0
886.816	0
899.967	0
899.996	0
901.893	0
902.71	0
902.82	117
902.915	0
903.787	0
903.823	1
903.852	0
903.882	0
