Mass spectrum: TG 54:3; LC-ESI-QTOF; MS2
Name: TG 54:3
Class:  TAG
Formula: C57H104O6
Exact mass: 885.453
SMILES: CCCCCCCCCCCCCCCCCC(=O)OCC(COC(=O)CCCCCCCC\C=C/C=C\CCCCC)OC(=O)CCCCCCCCC\C=C/CCCCCC
InChI: InChI=1S/C57H104O6/c1-4-7-10-13-16-19-22-25-28-31-34-37-40-43-46-49-55(58)61-52-54(63-57(60)51-48-45-42-39-36-33-30-27-24-21-18-15-12-9-6-3)53-62-56(59)50-47-44-41-38-35-32-29-26-23-20-17-14-11-8-5-2/h16,19,21-22,24-25,54H,4-15,17-18,20,23,26-53H2,1-3H3/b19-16-,24-21-,25-22-
Instrument: AB Sciex TripleTOF 5600+ system (Q-TOF) equipped with a DuoSpray ion source
Instrument type: LC-ESI-QTOF
Ms type: MS2
Ion mode: POSITIVE
Collision energy: 45V
Column name: Acquity UPLC Peptide BEH C18 column (50*2.1 mm; 1.7 um; 130A)(Waters Co.,Milford, MA, USA)
Retention time: 14.85676
Precursor type: [M+NH4]+
Precursor m/z: 902.8138
Intensity: 240075
m/z	relative intensity
71.048	0
71.085	8
77.038	1
79.054	8
81.07	40
83.047	0
83.085	22
85.064	1
85.101	8
91.053	3
93.069	10
95.085	47
97.063	2
97.101	23
99.079	2
99.117	2
105.069	2
107.085	8
109.101	32
111.08	2
111.116	13
113.095	2
113.13	0
113.137	0
119.085	2
121.101	24
123.116	18
125.095	1
125.132	3
127.112	2
127.145	0
131.085	0
133.101	3
133.108	1
135.117	20
137.097	0
137.131	10
139.112	1
139.148	1
141.128	1
147.113	3
147.123	1
149.133	14
151.148	8
153.127	4
155.142	1
159.114	0
161.132	6
163.148	12
165.127	0
165.164	9
167.142	2
169.157	0
171.117	0
173.132	0
175.147	8
177.163	6
179.14	0
179.179	4
181.156	1
183.175	0
189.164	4
191.176	3
193.156	1
193.193	1
195.177	0
203.179	1
205.194	1
207.175	1
207.211	0
209.154	0
217.188	0
219.211	0
221.192	0
221.231	0
235.165	0
237.184	0
237.218	0
239.236	8
243.211	0
245.227	19
247.241	31
249.186	1
249.256	3
261.221	0
263.205	0
263.236	69
265.252	112
267.267	19
273.246	0
273.262	0
275.271	2
277.216	0
277.257	0
279.227	0
280.266	0
282.263	0
282.282	1
283.243	0
284.284	0
284.297	1
285.246	0
285.271	0
289.25	0
291.227	0
291.269	2
293.283	8
295.271	0
297.275	0
301.25	0
303.263	0
303.3	0
305.292	0
313.273	4
317.242	0
319.263	14
319.302	0
321.276	6
323.225	0
323.293	1
325.299	0
333.295	0
335.258	1
337.232	0
337.273	12
339.289	49
340.292	0
341.306	27
347.295	0
347.326	0
349.313	0
365.302	0
367.317	4
391.285	0
393.293	0
401.384	0
405.298	0
417.402	0
429.362	0
433.401	0
443.393	0
465.394	0
489.402	0
493.412	0
501.487	0
503.411	0
505.417	0
509.478	0
511.483	0
527.467	1
527.486	2
527.502	1
529.47	0
529.487	1
529.502	2
545.481	2
545.512	0
547.457	0
547.474	0
547.493	0
549.484	0
551.502	0
555.513	0
563.506	0
565.511	5
573.482	2
573.505	0
575.501	295
576.495	1
577.518	36
579.53	0
580.534	0
581.536	0
589.522	0
591.496	0
591.531	5
591.557	1
599.619	0
599.637	1
599.659	0
601.261	0
601.332	0
601.405	0
601.515	815
602.522	10
603.38	1
603.427	0
603.531	999
604.545	29
604.596	0
604.961	0
605.32	0
605.359	0
605.397	0
605.546	902
606.162	0
606.554	8
607.542	0
607.718	0
608.253	0
608.426	0
615.515	0
617.532	0
617.554	0
619.522	0
619.551	1
619.581	0
627.546	0
627.599	0
629.548	309
630.544	1
630.562	1
631.566	18
633.577	0
657.579	0
673.58	0
673.628	0
675.563	0
677.565	0
687.607	0
701.635	0
717.607	0
731.625	0
743.663	0
745.633	0
757.7	0
759.647	0
759.704	0
773.69	0
787.672	0
787.71	0
801.724	0
864.795	0
864.845	0
867.741	1
867.769	5
867.79	6
867.824	1
868.777	0
883.054	0
885.786	63
886.752	0
886.785	0
886.815	0
899.949	0
899.992	0
900.023	0
901.811	0
902.5	0
902.814	122
902.889	0
903.773	0
903.815	2
903.855	0
903.877	0
