Mass spectrum: TG 51:3; LC-ESI-QTOF; MS2
Name: TG 51:3
Class:  TAG
Formula: C54H98O6
Exact mass: 843.372
SMILES: CCCCCCCCCCCCCCC(=O)OCC(COC(=O)CCCCCCCC\C=C/C=C\CCCCC)OC(=O)CCCCCCCCC\C=C/CCCCCC
InChI: InChI=1S/C54H98O6/c1-4-7-10-13-16-19-22-25-27-29-32-35-38-41-44-47-53(56)59-50-51(49-58-52(55)46-43-40-37-34-31-24-21-18-15-12-9-6-3)60-54(57)48-45-42-39-36-33-30-28-26-23-20-17-14-11-8-5-2/h16,19-20,22-23,25,51H,4-15,17-18,21,24,26-50H2,1-3H3/b19-16-,23-20-,25-22-
Instrument: AB Sciex TripleTOF 5600+ system (Q-TOF) equipped with a DuoSpray ion source
Instrument type: LC-ESI-QTOF
Ms type: MS2
Ion mode: POSITIVE
Collision energy: 45V
Column name: Acquity UPLC Peptide BEH C18 column (50*2.1 mm; 1.7 um; 130A)(Waters Co.,Milford, MA, USA)
Retention time: 14.34629
Precursor type: [M+NH4]+
Precursor m/z: 860.768
Intensity: 8801
m/z	relative intensity
79.054	7
81.068	32
83.085	18
85.1	6
93.068	8
95.086	34
97.099	17
107.082	6
109.098	17
111.115	8
121.1	13
123.117	13
135.115	12
137.134	9
149.129	7
151.144	6
161.133	6
163.148	7
165.163	6
175.148	8
177.162	5
225.22	17
233.224	5
239.235	17
245.225	23
247.245	5
251.238	18
263.237	56
265.252	32
279.27	1
282.278	1
299.253	16
301.25	2
311.257	2
313.272	13
313.291	4
319.255	9
319.269	8
321.277	1
325.261	3
325.283	4
327.283	3
327.307	2
335.255	1
337.259	5
337.272	17
339.282	10
339.297	9
341.296	1
535.466	2
547.454	6
547.479	13
547.496	7
549.48	5
559.474	8
559.738	4
561.484	620
561.549	3
561.738	3
562.47	4
562.494	11
563.503	999
564.5	15
565.53	6
573.453	6
573.483	100
573.513	16
574.494	4
575.501	491
575.557	5
576.49	5
576.52	4
577.516	31
587.499	468
588.483	3
588.521	5
589.515	159
589.557	9
601.52	612
602.527	8
603.531	14
615.526	18
615.554	6
801.684	5
825.694	3
825.73	4
825.752	5
827.68	5
827.705	8
827.732	3
827.755	2
841.68	4
841.721	13
841.758	5
843.724	23
843.753	36
843.814	2
844.754	3
860.763	182
860.799	41
861.768	3
861.806	3
