Mass spectrum: TG 58:4; LC-ESI-QTOF; MS2
Name: TG 58:4
Class:  TAG
Formula: C61H110O6
Exact mass: 939.545
SMILES: CCCCCCCCCC\C=C/CCCCCCCCCC(=O)OCC(COC(=O)CCCCCCCCC\C=C/CCCCCC)OC(=O)CCCCCCCC\C=C/C=C\CCCCC
InChI: InChI=1S/C61H110O6/c1-4-7-10-13-16-19-22-25-28-29-30-31-34-36-39-42-45-48-51-54-60(63)66-57-58(67-61(64)55-52-49-46-43-40-37-33-27-24-21-18-15-12-9-6-3)56-65-59(62)53-50-47-44-41-38-35-32-26-23-20-17-14-11-8-5-2/h18,20-21,23-24,27,29-30,58H,4-17,19,22,25-26,28,31-57H2,1-3H3/b21-18-,23-20-,27-24-,30-29-
Instrument: AB Sciex TripleTOF 5600+ system (Q-TOF) equipped with a DuoSpray ion source
Instrument type: LC-ESI-QTOF
Ms type: MS2
Ion mode: POSITIVE
Collision energy: 45V
Column name: Acquity UPLC Peptide BEH C18 column (50*2.1 mm; 1.7 um; 130A)(Waters Co.,Milford, MA, USA)
Retention time: 15.29645
Precursor type: [M+NH4]+
Precursor m/z: 956.8594
Intensity: 3702
m/z	relative intensity
79.054	10
81.068	28
83.086	10
95.085	29
97.101	15
109.099	17
111.117	19
121.103	16
137.132	13
161.134	10
163.148	13
175.146	15
245.221	28
247.239	13
263.237	58
263.252	17
265.251	46
268.996	11
289.254	8
291.263	6
293.28	33
293.293	10
303.303	8
319.266	13
321.292	6
321.314	42
337.277	33
339.29	39
367.319	27
377.339	11
395.353	40
432.991	13
573.492	55
575.484	17
575.514	19
599.503	40
601.521	967
602.525	17
603.528	85
627.513	15
627.551	17
629.55	803
630.559	14
631.543	33
631.576	85
655.582	16
657.581	994
657.635	22
659.592	999
659.615	483
660.589	13
660.62	10
661.601	11
671.614	6
683.583	19
683.611	31
685.59	19
685.627	44
713.639	4
808.903	4
827.716	4
841.787	6
843.774	7
909.75	33
909.789	123
909.83	22
921.821	28
925.732	47
925.755	212
925.786	135
925.812	60
939.801	15
939.831	96
939.871	53
956.818	54
956.854	361
956.882	142
956.898	129
956.944	18
957.88	13
