Mass spectrum: TG 58:10; LC-ESI-QTOF; MS2
Name: TG 58:10
Class:  TAG
Formula: C61H98O6
Exact mass: 927.449
SMILES: CCCCC\C=C/C=C\CCCCCCCCC(=O)OCC(COC(=O)CC\C=C/C\C=C/C\C=C/C\C=C/C\C=C/C\C=C/CC)OC(=O)CCCCCCCC\C=C/C=C\CCCCC
InChI: InChI=1S/C61H98O6/c1-4-7-10-13-16-19-22-25-28-29-30-31-34-36-39-42-45-48-51-54-60(63)66-57-58(67-61(64)55-52-49-46-43-40-37-33-27-24-21-18-15-12-9-6-3)56-65-59(62)53-50-47-44-41-38-35-32-26-23-20-17-14-11-8-5-2/h7,10,16-21,23-28,30-31,36,39,45,48,58H,4-6,8-9,11-15,22,29,32-35,37-38,40-44,46-47,49-57H2,1-3H3/b10-7-,19-16-,20-17-,21-18-,26-23-,27-24-,28-25-,31-30-,39-36-,48-45-
Instrument: AB Sciex TripleTOF 5600+ system (Q-TOF) equipped with a DuoSpray ion source
Instrument type: LC-ESI-QTOF
Ms type: MS2
Ion mode: POSITIVE
Collision energy: 45V
Column name: Acquity UPLC Peptide BEH C18 column (50*2.1 mm; 1.7 um; 130A)(Waters Co.,Milford, MA, USA)
Retention time: 13.96408
Precursor type: [M+NH4]+
Precursor m/z: 944.7675
Intensity: 221032
m/z	relative intensity
71.048	1
71.084	1
77.038	4
79.053	16
81.069	44
83.05	1
83.084	8
85.066	2
85.1	0
91.053	21
93.069	24
95.048	0
95.085	45
97.063	4
97.101	7
99.079	2
105.069	14
107.085	19
109.065	0
109.1	27
111.078	2
111.114	2
113.095	1
115.053	1
117.068	9
119.085	18
121.063	1
121.1	24
123.077	1
123.115	21
125.096	1
125.132	0
127.111	1
128.059	1
128.067	0
129.069	6
131.085	13
133.1	20
135.078	1
135.115	19
137.095	2
137.131	9
139.11	1
141.069	3
141.127	0
143.084	7
145.066	0
145.099	11
147.08	2
147.116	16
149.094	2
149.103	1
149.132	15
151.112	1
151.148	4
152.062	0
153.07	1
153.126	3
154.077	0
155.085	5
157.1	12
159.082	1
159.116	16
161.095	2
161.132	27
163.11	1
163.148	19
165.068	1
165.127	1
165.163	2
167.084	3
167.142	1
168.093	1
169.1	12
171.115	20
173.094	1
173.131	17
175.113	3
175.147	28
177.126	1
177.162	6
179.141	2
179.175	0
181.1	8
181.159	1
183.115	12
185.095	1
185.132	16
187.11	4
187.147	11
189.127	4
189.163	10
191.143	2
191.18	1
193.104	0
193.159	3
195.115	7
197.098	0
197.131	10
199.111	3
199.146	16
201.128	4
201.163	21
203.141	3
203.179	9
205.16	0
205.196	1
207.117	1
207.136	0
207.173	2
209.132	10
211.147	16
213.126	1
213.162	16
215.142	3
215.178	14
217.158	1
217.194	2
219.176	0
219.214	1
221.129	3
221.154	0
221.188	1
223.147	13
225.124	1
225.162	9
227.142	4
227.179	26
229.157	6
229.192	2
231.175	1
231.209	0
235.147	1
235.161	1
235.174	1
237.165	7
239.14	1
239.178	5
241.158	7
241.184	1
241.197	3
243.174	3
243.209	4
245.192	0
245.224	20
247.24	3
249.161	1
249.181	1
251.178	8
253.191	2
253.203	1
255.173	3
255.21	1
257.19	1
259.2	1
259.211	0
261.179	0
261.222	10
263.175	0
263.235	75
265.192	7
265.251	7
267.209	6
269.19	2
269.225	16
271.2	0
271.243	0
275.184	0
277.193	1
279.213	1
281.194	0
281.225	1
283.166	0
283.204	4
283.24	9
289.199	0
291.209	7
293.225	68
295.239	1
295.259	0
297.183	0
297.224	0
299.239	0
301.251	1
305.22	0
307.207	0
307.236	0
307.253	0
309.222	9
309.254	0
311.237	93
312.245	0
313.244	0
313.255	1
315.233	0
315.276	0
317.23	0
317.248	3
319.264	18
321.216	0
321.265	0
321.28	1
325.21	0
325.251	0
325.277	0
327.242	0
333.234	0
335.255	9
337.273	115
339.243	0
339.287	12
343.303	0
349.25	1
357.271	0
359.286	0
365.259	1
365.283	0
367.26	9
369.28	0
371.277	0
381.318	0
383.248	2
383.272	0
385.273	4
389.283	0
391.283	9
393.282	0
393.308	1
395.339	0
397.301	0
403.295	0
405.306	0
407.329	0
413.348	0
417.298	0
419.322	0
423.323	0
433.332	0
445.332	1
447.34	0
449.341	0
451.354	0
459.351	0
461.362	0
461.382	0
463.351	0
471.34	0
471.367	0
473.363	0
475.375	0
477.39	0
483.339	1
485.366	1
485.39	0
487.378	0
489.395	1
491.409	0
497.353	0
499.397	0
503.403	0
507.44	0
507.459	0
511.386	0
515.408	0
523.372	0
525.394	1
525.464	3
527.419	0
529.418	0
531.459	0
537.387	1
537.416	0
537.457	0
539.419	0
543.458	0
543.479	2
545.434	0
545.463	0
547.463	0
551.412	0
553.402	0
553.447	0
555.455	4
563.429	0
565.409	0
565.442	0
567.436	0
570.458	0
571.439	0
571.464	1
573.433	1
573.463	9
573.494	1
575.477	0
577.405	0
577.439	0
579.431	0
587.504	0
591.451	1
591.483	2
597.454	1
597.478	7
597.499	6
597.595	0
597.621	3
597.645	2
599.358	1
599.39	0
599.5	999
600.279	0
600.511	21
601.509	23
601.538	4
607.44	0
613.52	0
617.502	0
617.52	1
619.482	0
621.476	1
623.511	1
625.512	1
627.538	0
629.502	1
631.56	0
635.491	0
635.513	0
645.484	54
647.367	0
647.5	634
648.475	1
648.508	6
649.52	54
650.515	1
661.492	0
663.492	3
663.516	1
665.487	1
665.51	3
665.538	0
667.569	0
673.505	0
681.566	0
689.537	0
693.569	0
695.556	0
707.562	0
711.561	0
719.57	0
721.601	0
723.559	0
733.581	0
735.589	0
735.625	0
737.565	0
745.57	0
747.596	0
749.578	0
751.595	0
759.626	0
763.571	0
763.609	0
765.612	0
773.616	0
777.586	1
779.637	0
787.575	0
787.643	0
789.608	0
791.614	0
801.589	0
803.596	0
803.63	0
805.635	0
815.627	0
817.593	0
817.639	1
817.693	0
819.636	0
819.68	0
829.633	0
829.672	0
831.651	0
843.636	0
843.678	0
845.654	0
845.677	0
849.671	0
849.716	0
850.689	12
850.723	4
851.7	0
857.648	1
857.678	1
859.691	0
862.676	0
862.72	0
871.679	0
876.697	0
876.742	0
885.693	0
885.746	0
899.692	0
899.749	0
909.733	13
910.756	0
924.822	0
927.66	0
927.739	113
927.833	0
928.701	0
928.729	0
928.758	1
932.758	0
932.803	0
941.784	0
941.822	0
944.765	175
944.843	0
945.74	2
945.765	3
945.789	2
