Mass spectrum: TG 56:5; LC-ESI-QTOF; MS2
Name: TG 56:5
Class:  TAG
Formula: C59H104O6
Exact mass: 909.475
SMILES: CCCCCC\C=C/CCCCCCCCCC(=O)OCC(COC(=O)CCCCCCCCC\C=C/C\C=C/CCCCC)OC(=O)CCCCCCCC\C=C/C=C\CCCCC
InChI: InChI=1S/C59H104O6/c1-4-7-10-13-16-19-22-25-28-29-32-34-37-40-43-46-49-52-58(61)64-55-56(65-59(62)53-50-47-44-41-38-35-31-27-24-21-18-15-12-9-6-3)54-63-57(60)51-48-45-42-39-36-33-30-26-23-20-17-14-11-8-5-2/h16,18-21,23-25,27-28,56H,4-15,17,22,26,29-55H2,1-3H3/b19-16-,21-18-,23-20-,27-24-,28-25-
Instrument: AB Sciex TripleTOF 5600+ system (Q-TOF) equipped with a DuoSpray ion source
Instrument type: LC-ESI-QTOF
Ms type: MS2
Ion mode: POSITIVE
Collision energy: 45V
Column name: Acquity UPLC Peptide BEH C18 column (50*2.1 mm; 1.7 um; 130A)(Waters Co.,Milford, MA, USA)
Retention time: 14.62409
Precursor type: [M+NH4]+
Precursor m/z: 926.8151
Intensity: 15710
m/z	relative intensity
79.053	3
81.07	18
83.083	8
93.068	7
95.086	19
97.102	7
99.078	4
105.068	3
107.085	6
109.1	18
119.084	3
121.101	10
123.117	8
133.101	5
135.117	9
137.13	5
147.117	3
149.134	9
151.147	4
159.119	3
161.133	6
163.147	9
173.132	4
175.15	10
177.16	3
179.179	3
189.161	4
191.178	4
243.209	6
245.227	17
247.242	4
261.22	18
263.235	56
265.252	19
271.24	6
273.254	1
275.267	2
275.285	2
285.237	1
289.252	14
289.273	1
291.266	4
291.29	1
293.222	2
293.285	19
301.261	1
311.24	2
313.282	2
317.236	1
317.249	1
317.282	1
319.263	12
321.273	2
335.253	3
337.272	24
339.291	20
341.313	2
342.307	2
343.314	1
345.275	4
347.292	2
349.31	2
363.289	2
365.312	4
367.319	21
401.377	1
487.393	2
525.462	6
543.484	4
553.494	3
555.508	2
555.529	2
571.508	1
573.512	2
575.5	7
577.508	4
578.53	2
579.522	8
579.547	3
580.511	1
580.534	12
580.556	3
581.536	13
581.56	4
597.493	3
599.501	571
600.491	4
600.512	5
601.516	138
602.514	15
602.558	1
603.534	162
603.578	2
604.5	2
604.567	2
605.534	29
605.562	7
606.548	8
607.574	2
608.567	3
615.541	1
617.556	2
623.508	2
624.497	4
624.522	3
625.493	4
625.521	18
625.579	2
627.533	306
627.592	4
628.531	2
629.549	999
630.539	5
630.562	3
631.559	72
631.601	6
643.557	2
645.541	4
647.575	2
652.532	4
653.525	4
653.551	6
655.561	3
685.534	1
687.547	1
701.554	1
713.639	1
729.612	1
769.648	1
797.669	2
825.723	1
839.711	1
844.71	2
844.787	1
867.699	2
867.726	5
867.769	4
886.767	2
886.821	1
891.754	5
891.776	13
891.801	9
903.717	5
903.764	3
903.801	6
903.841	3
909.787	150
909.827	20
910.806	1
923.901	1
926.746	2
926.814	283
927.831	1
