Mass spectrum: TG 60:13; LC-ESI-QTOF; MS2
Name: TG 60:13
Class:  TAG
Formula: C63H96O6
Exact mass: 949.455
SMILES: CCCCC\C=C/C\C=C/C\C=C/C\C=C/CCCC(=O)OCC(COC(=O)CCC\C=C/C\C=C/C\C=C/C\C=C/C\C=C/CC)OC(=O)CCC\C=C/C\C=C/C\C=C/C\C=C/CCCCC
InChI: InChI=1S/C63H96O6/c1-4-7-10-13-16-19-22-25-28-31-34-37-40-43-46-49-52-55-61(64)67-58-60(69-63(66)57-54-51-48-45-42-39-36-33-30-27-24-21-18-15-12-9-6-3)59-68-62(65)56-53-50-47-44-41-38-35-32-29-26-23-20-17-14-11-8-5-2/h7,10,16-21,25-30,34-39,43-48,60H,4-6,8-9,11-15,22-24,31-33,40-42,49-59H2,1-3H3/b10-7-,19-16-,20-17-,21-18-,28-25-,29-26-,30-27-,37-34-,38-35-,39-36-,46-43-,47-44-,48-45-
Instrument: AB Sciex TripleTOF 5600+ system (Q-TOF) equipped with a DuoSpray ion source
Instrument type: LC-ESI-QTOF
Ms type: MS2
Ion mode: POSITIVE
Collision energy: 45V
Column name: Acquity UPLC Peptide BEH C18 column (50*2.1 mm; 1.7 um; 130A)(Waters Co.,Milford, MA, USA)
Retention time: 13.76549
Precursor type: [M+NH4]+
Precursor m/z: 966.7494
Intensity: 1501
m/z	relative intensity
81.069	68
91.051	58
95.083	57
121.098	51
131.086	58
133.097	52
159.115	58
161.132	86
171.115	57
173.135	67
175.15	67
197.132	65
201.166	161
227.18	61
263.241	50
267.216	66
285.222	73
287.234	14
292.971	14
293.226	52
295.234	23
309.215	16
311.226	50
311.246	65
317.238	14
319.27	14
335.254	14
337.27	345
359.265	28
361.274	28
385.273	124
391.29	50
619.456	22
621.452	89
621.487	999
621.526	44
623.492	21
645.493	109
647.47	170
647.491	442
647.51	780
649.524	14
665.521	28
669.468	141
669.502	109
685.487	14
688.635	14
825.674	21
847.669	14
867.624	14
871.702	57
887.665	65
898.709	23
907.762	70
907.801	69
931.711	21
949.688	50
949.745	57
966.566	43
966.657	58
966.71	125
966.749	354
966.78	324
