Mass spectrum: TG 58:8; LC-ESI-QTOF; MS2
Name: TG 58:8
Class:  TAG
Formula: C61H102O6
Exact mass: 931.481
SMILES: CCCCCC\C=C/CCCCCCCCCC(=O)OCC(COC(=O)CCCCC\C=C/C\C=C/C\C=C/C\C=C/C\C=C/CC)OC(=O)CCCCCCCC\C=C/C=C\CCCCC
InChI: InChI=1S/C61H102O6/c1-4-7-10-13-16-19-22-25-28-29-30-31-34-36-39-42-45-48-51-54-60(63)66-57-58(67-61(64)55-52-49-46-43-40-37-33-27-24-21-18-15-12-9-6-3)56-65-59(62)53-50-47-44-41-38-35-32-26-23-20-17-14-11-8-5-2/h7,10,16,18-21,23-25,27-28,30-31,36,39,58H,4-6,8-9,11-15,17,22,26,29,32-35,37-38,40-57H2,1-3H3/b10-7-,19-16-,21-18-,23-20-,27-24-,28-25-,31-30-,39-36-
Instrument: AB Sciex TripleTOF 5600+ system (Q-TOF) equipped with a DuoSpray ion source
Instrument type: LC-ESI-QTOF
Ms type: MS2
Ion mode: POSITIVE
Collision energy: 45V
Column name: Acquity UPLC Peptide BEH C18 column (50*2.1 mm; 1.7 um; 130A)(Waters Co.,Milford, MA, USA)
Retention time: 14.30335
Precursor type: [M+NH4]+
Precursor m/z: 948.8033
Intensity: 3278
m/z	relative intensity
81.071	26
83.087	11
91.055	11
93.069	16
95.085	33
97.1	10
107.086	14
109.1	20
121.1	20
123.115	16
131.087	13
133.099	14
135.116	17
145.102	16
149.134	10
159.118	16
161.135	17
163.148	12
171.117	17
173.13	17
175.149	17
185.131	19
187.147	19
199.149	20
201.161	38
203.178	13
211.15	13
213.158	17
215.177	18
227.181	9
229.193	11
241.196	10
245.23	15
263.235	26
263.244	9
265.252	32
282.275	4
285.22	10
293.23	6
295.24	29
295.259	13
311.233	12
313.244	22
313.256	84
313.287	6
315.265	4
319.27	7
321.263	8
323.234	5
329.25	7
335.256	7
337.247	4
337.273	41
337.283	14
337.288	8
339.279	13
339.293	62
341.293	7
363.293	4
369.271	19
369.286	20
385.272	7
387.292	7
573.489	13
575.491	51
575.512	35
577.48	7
579.521	8
599.478	18
599.496	12
599.518	27
600.505	6
601.52	844
602.514	37
603.545	15
621.458	17
621.486	33
621.513	18
623.49	41
623.507	28
623.525	17
625.524	18
627.532	12
629.527	8
629.551	25
629.583	8
647.468	10
647.496	8
647.52	8
649.516	469
649.563	19
650.528	23
651.499	26
651.506	49
651.534	366
652.537	8
653.544	14
667.55	7
669.535	12
675.521	22
675.542	5
675.552	11
677.553	13
821.635	2
821.682	4
835.676	3
849.672	3
861.705	3
866.722	14
866.781	4
877.741	7
903.733	999
904.721	13
904.754	20
904.794	7
913.757	17
913.805	8
931.727	37
931.773	195
931.824	21
932.775	10
948.757	38
948.775	65
948.792	208
948.818	153
948.844	32
