Mass spectrum: TG 51:1; LC-ESI-QTOF; MS2
Name: TG 51:1
Class:  TAG
Formula: C54H102O6
Exact mass: 847.404
SMILES: CCCCCCCCCCCCCCCC(=O)OCC(COC(=O)CCCCCCC\C=C/CCCCCCCCC)OC(=O)CCCCCCCCCCCCCCC
InChI: InChI=1S/C54H102O6/c1-4-7-10-13-16-19-22-25-26-27-30-32-35-38-41-44-47-53(56)59-50-51(60-54(57)48-45-42-39-36-33-29-24-21-18-15-12-9-6-3)49-58-52(55)46-43-40-37-34-31-28-23-20-17-14-11-8-5-2/h26-27,51H,4-25,28-50H2,1-3H3/b27-26-
Instrument: AB Sciex TripleTOF 5600+ system (Q-TOF) equipped with a DuoSpray ion source
Instrument type: LC-ESI-QTOF
Ms type: MS2
Ion mode: POSITIVE
Collision energy: 45V
Column name: Acquity UPLC Peptide BEH C18 column (50*2.1 mm; 1.7 um; 130A)(Waters Co.,Milford, MA, USA)
Retention time: 14.96413
Precursor type: [M+NH4]+
Precursor m/z: 864.7999
Intensity: 47494
m/z	relative intensity
71.085	9
79.054	2
81.069	16
83.085	13
85.065	1
85.101	12
93.07	2
95.085	26
97.065	0
97.1	13
99.081	0
99.117	2
107.086	1
109.101	17
111.081	0
111.115	6
113.133	1
121.101	6
123.117	10
125.133	2
127.149	0
135.117	5
137.133	5
139.147	1
141.165	0
149.13	3
151.147	3
153.128	1
163.146	2
163.156	0
165.163	4
167.142	0
177.164	1
179.178	1
179.189	0
191.179	1
193.195	0
205.197	0
221.228	3
225.22	3
233.232	0
235.242	3
237.219	0
239.237	33
247.24	9
249.259	0
251.235	1
251.248	1
253.253	16
256.254	0
256.268	0
261.257	1
265.252	36
267.268	3
270.275	1
271.26	0
275.269	0
279.268	4
281.29	0
282.277	1
284.293	0
293.288	0
295.267	0
297.278	0
299.261	0
307.261	0
311.285	0
313.274	11
321.266	0
321.279	1
321.292	0
323.292	0
325.273	0
327.291	6
335.299	0
339.289	4
341.306	2
353.302	0
355.321	0
367.32	0
503.482	0
517.499	0
523.469	0
535.451	0
537.462	1
537.488	14
549.486	28
550.49	0
551.502	90
551.557	0
552.513	0
561.742	0
563.502	146
563.732	0
563.751	0
564.506	1
564.535	0
565.408	0
565.517	696
566.52	7
566.556	1
575.674	0
575.714	1
575.737	0
575.755	0
577.376	0
577.518	678
578.502	2
578.525	5
578.561	0
579.536	46
580.519	0
580.54	0
589.682	3
589.711	0
590.988	0
591.308	0
591.394	0
591.533	999
591.596	0
592.52	35
593.499	0
605.548	81
606.547	0
619.563	6
619.584	2
829.753	0
829.781	0
844.75	10
844.802	0
847.726	0
847.759	1
847.793	2
862.131	0
864.692	0
864.73	1
864.799	93
865.754	0
865.811	2
