Mass spectrum: TG 52:6; LC-ESI-QTOF; MS2
Name: TG 52:6
Class:  TAG
Formula: C55H94O6
Exact mass: 851.3509999999999
SMILES: CCCCCCCCCCCCCCCC(=O)OCC(COC(=O)CCC\C=C/C\C=C/C\C=C/C\C=C/C\C=C/CC)OC(=O)CCCCC\C=C/CCCCCCCC
InChI: InChI=1S/C55H94O6/c1-4-7-10-13-16-19-22-25-26-27-28-31-33-36-39-42-45-48-54(57)60-51-52(61-55(58)49-46-43-40-37-34-30-24-21-18-15-12-9-6-3)50-59-53(56)47-44-41-38-35-32-29-23-20-17-14-11-8-5-2/h7,10,16,19,25-26,28,30-31,34,36,39,52H,4-6,8-9,11-15,17-18,20-24,27,29,32-33,35,37-38,40-51H2,1-3H3/b10-7-,19-16-,26-25-,31-28-,34-30-,39-36-
Instrument: AB Sciex TripleTOF 5600+ system (Q-TOF) equipped with a DuoSpray ion source
Instrument type: LC-ESI-QTOF
Ms type: MS2
Ion mode: POSITIVE
Collision energy: 45V
Column name: Acquity UPLC Peptide BEH C18 column (50*2.1 mm; 1.7 um; 130A)(Waters Co.,Milford, MA, USA)
Retention time: 13.95326
Precursor type: [M+NH4]+
Precursor m/z: 868.7387
Intensity: 2834
m/z	relative intensity
79.053	13
81.068	25
83.086	12
91.054	21
93.07	15
95.084	24
97.101	15
105.068	15
107.083	10
109.1	18
117.068	10
119.085	10
121.101	10
123.115	16
131.084	17
133.101	12
135.116	17
145.102	12
149.134	8
159.116	17
161.129	12
171.115	17
173.13	21
175.147	15
185.132	18
187.148	23
189.162	8
199.147	14
201.162	77
211.147	13
219.21	8
237.219	35
239.236	24
239.25	9
241.194	14
243.214	10
257.233	13
259.204	15
265.255	8
267.21	64
285.221	82
285.259	4
286.229	3
309.238	2
311.261	72
312.261	2
313.271	101
313.291	14
313.304	5
319.266	4
337.263	4
337.282	12
339.269	2
339.292	17
341.251	7
359.27	3
365.263	5
367.283	7
521.442	8
547.451	4
547.483	9
548.48	13
549.487	999
550.472	12
550.494	17
550.507	7
569.45	41
569.482	6
571.453	19
571.472	13
571.484	24
571.508	5
573.492	25
575.474	19
575.503	131
575.529	27
595.444	44
595.475	247
596.489	10
597.457	16
597.486	129
597.51	26
599.502	12
601.512	5
603.53	4
623.494	12
623.514	21
769.616	2
833.7	9
849.677	2
850.698	258
850.743	29
850.774	3
851.726	41
852.702	2
868.653	3
868.7	51
868.739	127
868.769	35
868.802	10
868.831	4
869.752	6
869.788	2
873.728	1
