Mass spectrum: TG 56:6; LC-ESI-QTOF; MS2
Name: TG 56:6
Class:  TAG
Formula: C59H102O6
Exact mass: 907.4590000000001
SMILES: CCCCCCCCCCCCCCCC(=O)OCC(COC(=O)CCCCC\C=C/C\C=C/C\C=C/C\C=C/C\C=C/CC)OC(=O)CCCCCCCCC\C=C/CCCCCC
InChI: InChI=1S/C59H102O6/c1-4-7-10-13-16-19-22-25-27-28-29-30-32-34-37-40-43-46-49-52-58(61)64-55-56(54-63-57(60)51-48-45-42-39-36-33-24-21-18-15-12-9-6-3)65-59(62)53-50-47-44-41-38-35-31-26-23-20-17-14-11-8-5-2/h7,10,16,19-20,23,25,27,29-30,34,37,56H,4-6,8-9,11-15,17-18,21-22,24,26,28,31-33,35-36,38-55H2,1-3H3/b10-7-,19-16-,23-20-,27-25-,30-29-,37-34-
Instrument: AB Sciex TripleTOF 5600+ system (Q-TOF) equipped with a DuoSpray ion source
Instrument type: LC-ESI-QTOF
Ms type: MS2
Ion mode: POSITIVE
Collision energy: 45V
Column name: Acquity UPLC Peptide BEH C18 column (50*2.1 mm; 1.7 um; 130A)(Waters Co.,Milford, MA, USA)
Retention time: 14.48948
Precursor type: [M+NH4]+
Precursor m/z: 924.8008
Intensity: 12150
m/z	relative intensity
71.084	8
79.053	6
79.06	4
81.068	22
81.076	4
83.084	13
85.1	6
91.055	9
93.069	11
95.084	30
97.1	10
105.068	7
107.085	5
109.1	21
111.115	4
117.065	5
117.073	4
119.083	9
121.1	19
123.114	8
129.067	6
131.085	13
133.1	11
135.116	16
137.128	4
145.1	8
147.117	5
149.131	6
151.147	5
157.103	7
159.117	14
161.133	10
163.145	7
165.164	4
171.118	12
173.131	20
175.149	16
177.162	4
183.114	7
185.131	14
187.148	14
189.162	6
191.14	4
197.132	6
199.146	16
201.162	42
203.181	9
211.147	10
213.163	18
215.177	34
217.158	3
225.162	12
227.177	8
229.196	12
231.172	5
239.238	26
243.175	4
247.243	15
253.193	4
265.252	50
269.226	3
271.208	3
282.284	2
285.18	1
285.218	2
285.263	3
287.196	2
287.235	4
287.248	1
289.254	1
293.228	4
295.241	58
297.26	1
297.286	1
299.204	1
309.229	1
311.243	10
313.209	1
313.258	224
313.281	22
314.252	1
315.275	2
321.27	2
323.236	2
327.239	2
329.251	2
331.285	1
337.276	3
339.286	49
341.243	1
341.291	1
341.317	1
351.256	1
351.27	3
355.309	1
367.275	1
369.28	28
385.268	10
385.285	4
387.284	5
387.298	6
433.0	1
437.363	1
451.367	1
453.39	1
463.382	2
465.397	1
477.393	1
489.402	3
491.402	1
501.395	2
503.398	3
505.42	3
515.002	2
515.4	4
517.43	3
527.412	2
529.437	4
531.447	2
533.479	3
541.413	2
541.472	1
543.439	3
543.46	2
549.465	2
549.488	3
549.515	1
551.472	7
551.486	11
551.506	12
551.528	2
555.427	2
555.456	2
557.454	2
559.477	4
559.496	3
567.442	1
569.449	2
569.481	3
575.495	6
575.516	8
575.713	2
577.517	999
578.519	31
578.554	5
579.51	1
579.531	2
581.457	2
583.461	1
585.492	2
595.49	2
597.486	2
599.481	3
599.509	2
601.499	2
601.52	4
603.513	5
603.536	18
604.541	1
605.544	2
623.491	2
623.51	6
623.547	1
625.517	590
625.603	2
626.515	20
626.551	3
627.543	7
627.563	4
629.542	1
641.509	6
643.507	3
643.542	4
649.513	3
651.535	647
652.522	19
652.549	10
667.512	3
667.534	2
669.534	2
669.563	2
757.648	0
767.662	1
779.654	0
781.647	0
785.665	1
797.664	2
807.685	0
811.667	2
823.671	1
825.69	3
837.711	4
871.766	1
881.727	1
881.771	1
889.762	11
889.794	5
898.763	4
898.83	1
904.921	1
907.775	211
908.741	2
908.778	6
908.814	2
921.922	1
924.698	1
924.796	331
924.84	31
925.769	6
925.809	8
925.841	2
