Mass spectrum: TG 52:6; LC-ESI-QTOF; MS2
Name: TG 52:6
Class:  TAG
Formula: C55H94O6
Exact mass: 851.3509999999999
SMILES: CCCCCCCC\C=C/C\C=C/CCC(=O)OCC(COC(=O)CCCCCCCC\C=C/C=C\CCCCC)OC(=O)CCCCCCCC\C=C/C=C\CCCCC
InChI: InChI=1S/C55H94O6/c1-4-7-10-13-16-19-22-25-27-30-33-36-39-42-45-48-54(57)60-51-52(50-59-53(56)47-44-41-38-35-32-29-24-21-18-15-12-9-6-3)61-55(58)49-46-43-40-37-34-31-28-26-23-20-17-14-11-8-5-2/h16-17,19-20,22-23,25-26,29,32,38,41,52H,4-15,18,21,24,27-28,30-31,33-37,39-40,42-51H2,1-3H3/b19-16-,20-17-,25-22-,26-23-,32-29-,41-38-
Instrument: AB Sciex TripleTOF 5600+ system (Q-TOF) equipped with a DuoSpray ion source
Instrument type: LC-ESI-QTOF
Ms type: MS2
Ion mode: POSITIVE
Collision energy: 45V
Column name: Acquity UPLC Peptide BEH C18 column (50*2.1 mm; 1.7 um; 130A)(Waters Co.,Milford, MA, USA)
Retention time: 13.84126
Precursor type: [M+NH4]+
Precursor m/z: 868.7377
Intensity: 5475
m/z	relative intensity
81.068	36
93.067	26
95.085	46
97.1	12
107.083	15
109.099	16
121.1	30
123.117	24
135.116	30
137.132	10
147.116	10
149.13	13
159.117	12
161.126	12
163.146	21
173.128	16
175.148	17
177.162	11
187.144	11
189.161	11
217.193	10
219.216	13
235.201	13
237.214	17
237.226	38
243.207	24
245.217	12
245.231	21
261.218	92
263.229	20
263.239	44
279.214	3
294.242	3
299.238	5
309.239	7
311.248	27
311.262	14
313.259	3
315.242	5
317.234	9
317.245	24
319.261	21
333.237	4
335.238	7
335.267	23
337.266	40
337.281	20
339.291	7
345.293	3
479.427	6
493.416	9
493.443	6
494.417	21
496.45	7
497.433	15
515.427	10
519.438	9
520.444	10
521.435	22
521.453	27
521.468	16
521.489	8
522.448	116
522.47	65
541.412	6
541.467	9
547.477	12
548.47	37
548.495	13
550.483	10
569.447	35
571.467	662
571.702	6
573.481	999
575.489	17
575.519	6
576.498	16
576.528	8
589.472	6
595.448	7
595.473	22
596.478	4
597.486	820
599.49	204
599.514	89
599.542	15
601.506	28
604.534	6
615.475	6
622.491	7
623.492	9
625.501	6
739.616	6
753.615	4
767.638	3
781.611	3
793.7	9
833.673	15
833.701	22
833.729	6
851.677	53
851.713	181
851.747	22
868.691	50
868.71	91
868.725	55
868.743	147
868.778	31
