Mass spectrum: TG 58:8; LC-ESI-QTOF; MS2
Name: TG 58:8
Class:  TAG
Formula: C61H102O6
Exact mass: 931.481
SMILES: CCCCCC\C=C/CCCCCCCCCC(=O)OCC(COC(=O)CCCCC\C=C/C\C=C/C\C=C/C\C=C/C\C=C/CC)OC(=O)CCCCCCCC\C=C/C=C\CCCCC
InChI: InChI=1S/C61H102O6/c1-4-7-10-13-16-19-22-25-28-29-30-31-34-36-39-42-45-48-51-54-60(63)66-57-58(67-61(64)55-52-49-46-43-40-37-33-27-24-21-18-15-12-9-6-3)56-65-59(62)53-50-47-44-41-38-35-32-26-23-20-17-14-11-8-5-2/h7,10,16,18-21,23-25,27-28,30-31,36,39,58H,4-6,8-9,11-15,17,22,26,29,32-35,37-38,40-57H2,1-3H3/b10-7-,19-16-,21-18-,23-20-,27-24-,28-25-,31-30-,39-36-
Instrument: AB Sciex TripleTOF 5600+ system (Q-TOF) equipped with a DuoSpray ion source
Instrument type: LC-ESI-QTOF
Ms type: MS2
Ion mode: POSITIVE
Collision energy: 45V
Column name: Acquity UPLC Peptide BEH C18 column (50*2.1 mm; 1.7 um; 130A)(Waters Co.,Milford, MA, USA)
Retention time: 14.25294
Precursor type: [M+NH4]+
Precursor m/z: 948.8068
Intensity: 8390
m/z	relative intensity
79.068	47
81.063	51
81.082	143
93.08	49
95.079	66
95.097	68
109.113	79
121.116	68
133.114	55
135.132	53
137.136	50
145.121	45
149.125	40
161.131	42
173.132	42
173.146	47
175.139	83
185.129	42
187.138	42
199.151	51
201.156	115
201.169	51
201.179	87
201.193	44
213.176	44
215.184	49
215.211	40
229.192	40
263.228	64
263.243	40
263.254	57
263.27	57
265.245	47
265.259	72
265.29	53
285.224	21
285.246	34
285.259	17
287.22	23
295.23	72
295.25	98
295.272	43
295.29	38
311.228	21
311.239	36
311.263	21
311.281	19
313.229	112
313.252	452
313.285	150
313.306	66
313.325	25
319.257	18
319.306	19
329.264	17
337.244	34
337.264	90
337.275	49
337.29	94
337.325	72
339.252	17
339.277	170
339.299	146
339.316	62
339.33	53
339.345	32
341.285	18
367.319	24
369.266	72
369.289	36
369.319	31
385.277	44
387.334	21
527.421	31
575.482	64
575.518	44
601.448	57
601.474	140
601.487	226
601.511	881
601.539	999
601.563	791
601.594	705
601.62	124
601.643	71
601.658	39
602.508	55
602.543	74
603.523	40
603.546	33
621.471	33
626.499	40
629.539	79
629.575	66
629.602	31
649.46	109
649.482	280
649.514	563
649.541	891
649.578	469
649.614	397
649.64	114
649.661	56
651.477	155
651.492	192
651.527	526
651.561	684
651.596	480
651.619	212
651.646	218
651.685	37
653.579	34
667.546	31
675.515	25
675.568	20
675.633	10
677.544	23
781.597	8
795.659	9
809.701	10
819.661	12
821.709	11
823.661	11
835.7	9
861.666	10
861.721	12
865.717	8
866.676	14
866.724	29
866.814	14
913.727	44
913.814	29
931.685	69
931.711	125
931.752	399
931.792	352
931.84	387
931.886	117
931.919	80
931.958	33
932.758	19
932.802	19
940.696	23
948.7	72
948.742	302
948.767	416
948.788	272
948.814	447
948.842	345
948.86	309
948.884	287
948.917	157
948.937	102
948.975	79
949.007	23
949.764	27
949.803	34
949.852	21
949.916	23
