Mass spectrum: TG 50:6; LC-ESI-QTOF; MS2
Name: TG 50:6
Class:  TAG
Formula: C53H90O6
Exact mass: 823.297
SMILES: CCCCCCCCCCCC(=O)OCC(COC(=O)CCC\C=C/C\C=C/C\C=C/C\C=C/CCCCC)OC(=O)CCCCCCCC\C=C/C=C\CCCCC
InChI: InChI=1S/C53H90O6/c1-4-7-10-13-16-19-21-23-25-26-28-29-31-34-37-40-43-46-52(55)58-49-50(48-57-51(54)45-42-39-36-33-18-15-12-9-6-3)59-53(56)47-44-41-38-35-32-30-27-24-22-20-17-14-11-8-5-2/h16-17,19-20,22-25,28-29,34,37,50H,4-15,18,21,26-27,30-33,35-36,38-49H2,1-3H3/b19-16-,20-17-,24-22-,25-23-,29-28-,37-34-
Instrument: AB Sciex TripleTOF 5600+ system (Q-TOF) equipped with a DuoSpray ion source
Instrument type: LC-ESI-QTOF
Ms type: MS2
Ion mode: POSITIVE
Collision energy: 45V
Column name: Acquity UPLC Peptide BEH C18 column (50*2.1 mm; 1.7 um; 130A)(Waters Co.,Milford, MA, USA)
Retention time: 13.76826
Precursor type: [M+NH4]+
Precursor m/z: 840.7057
Intensity: 1154
m/z	relative intensity
79.055	40
81.066	47
95.085	115
97.1	47
107.088	40
121.1	47
131.087	47
147.113	47
159.119	47
171.117	58
185.132	47
201.162	57
231.177	116
237.222	66
267.211	76
283.225	47
285.199	19
285.221	47
285.238	114
311.256	66
313.276	95
337.274	57
339.267	45
365.261	19
495.443	50
519.441	146
521.455	989
541.427	123
543.423	60
543.432	87
543.443	96
543.458	66
551.499	40
567.444	370
569.456	85
573.484	69
575.498	999
575.521	136
593.444	79
595.465	95
599.496	96
599.517	47
621.49	47
623.507	47
758.656	19
778.839	19
805.676	28
821.646	730
821.659	975
821.671	865
821.683	596
821.746	47
823.675	59
840.574	22
840.616	38
840.662	87
840.68	97
840.694	77
840.724	134
