Mass spectrum: TG 56:3; LC-ESI-QTOF; MS2
Name: TG 56:3
Class:  TAG
Formula: C59H108O6
Exact mass: 913.5070000000001
SMILES: CCCCCCCC\C=C/CCCCCCCCCC(=O)OCC(COC(=O)CCCCCCCCC\C=C/CCCCCC)OC(=O)CCCCCCCCC\C=C/CCCCCC
InChI: InChI=1S/C59H108O6/c1-4-7-10-13-16-19-22-25-28-29-32-34-37-40-43-46-49-52-58(61)64-55-56(65-59(62)53-50-47-44-41-38-35-31-27-24-21-18-15-12-9-6-3)54-63-57(60)51-48-45-42-39-36-33-30-26-23-20-17-14-11-8-5-2/h20-21,23-25,28,56H,4-19,22,26-27,29-55H2,1-3H3/b23-20-,24-21-,28-25-
Instrument: AB Sciex TripleTOF 5600+ system (Q-TOF) equipped with a DuoSpray ion source
Instrument type: LC-ESI-QTOF
Ms type: MS2
Ion mode: POSITIVE
Collision energy: 45V
Column name: Acquity UPLC Peptide BEH C18 column (50*2.1 mm; 1.7 um; 130A)(Waters Co.,Milford, MA, USA)
Retention time: 15.23414
Precursor type: [M+NH4]+
Precursor m/z: 930.8453
Intensity: 78720
m/z	relative intensity
71.049	0
71.085	1
77.036	0
79.053	3
81.069	13
83.084	11
85.063	0
85.1	2
91.054	1
93.068	4
95.05	0
95.085	17
97.064	1
97.1	10
99.079	0
99.117	0
101.093	0
105.069	0
107.085	3
109.1	11
111.079	0
111.116	5
113.094	1
113.131	0
119.084	0
121.1	11
123.116	7
125.093	0
125.13	1
127.112	1
133.099	0
135.116	10
137.132	3
139.111	1
139.148	0
141.125	0
147.118	0
149.132	6
151.148	2
153.126	1
155.142	0
159.113	0
161.13	0
163.148	4
165.162	3
167.142	1
167.177	0
169.158	0
175.146	1
177.162	2
179.142	0
179.178	1
181.157	0
183.172	0
189.165	0
191.178	2
193.195	1
195.134	0
195.172	0
197.19	0
201.164	0
203.176	0
205.194	1
207.21	0
209.15	0
209.182	0
209.192	0
219.211	0
221.226	0
223.203	0
233.222	0
233.234	0
237.183	0
237.219	0
239.234	1
245.226	2
247.241	16
263.235	6
264.431	0
265.252	57
266.256	0
267.268	0
273.251	0
275.272	7
276.284	0
277.293	0
279.232	0
279.277	0
282.279	1
285.27	0
291.264	0
291.283	0
293.246	0
293.282	30
294.285	0
295.293	0
303.263	0
303.301	0
307.266	0
310.303	0
311.258	0
313.261	0
313.276	0
319.262	1
319.305	0
321.277	2
321.315	2
323.293	0
323.312	0
331.301	0
335.269	0
337.272	1
337.293	0
339.288	22
340.293	0
341.304	1
341.321	0
347.285	0
349.308	2
351.327	0
365.301	0
367.321	13
369.327	0
369.343	0
375.311	0
377.336	0
393.301	0
395.353	0
529.484	0
529.502	0
547.463	1
547.494	0
557.518	1
557.541	1
575.5	52
575.557	0
576.507	0
577.497	1
577.52	3
589.52	0
601.515	35
601.631	0
601.652	1
602.525	0
603.413	0
603.53	835
604.534	12
604.557	4
605.509	0
605.546	10
608.559	0
609.575	0
617.541	1
617.567	0
629.549	62
629.641	0
630.546	0
630.572	0
630.621	0
631.402	0
631.449	0
631.561	999
632.567	23
633.578	117
634.57	1
634.611	0
645.581	0
657.58	49
658.567	0
658.598	0
659.56	1
659.594	14
660.596	0
671.589	0
673.582	0
675.556	0
685.597	0
685.616	0
685.646	0
687.651	0
689.568	0
701.629	0
713.646	0
715.659	0
757.699	0
787.687	0
801.672	0
815.745	0
840.762	0
895.75	0
895.786	2
895.811	3
895.846	0
896.836	0
910.785	0
910.952	0
913.819	35
914.804	0
914.841	0
922.744	0
922.798	0
922.847	0
927.89	0
927.928	0
930.692	0
930.763	0
930.842	127
931.848	5
