Mass spectrum: TG 50:1; LC-ESI-QTOF; MS2
Name: TG 50:1
Class:  TAG
Formula: C53H100O6
Exact mass: 833.377
SMILES: CCCCCCCCCCCCCCCC(=O)OCC(COC(=O)CCCCCCCCC\C=C/CCCCCC)OC(=O)CCCCCCCCCCCCCCC
InChI: InChI=1S/C53H100O6/c1-4-7-10-13-16-19-22-25-26-29-31-34-37-40-43-46-52(55)58-49-50(59-53(56)47-44-41-38-35-32-28-24-21-18-15-12-9-6-3)48-57-51(54)45-42-39-36-33-30-27-23-20-17-14-11-8-5-2/h19,22,50H,4-18,20-21,23-49H2,1-3H3/b22-19-
Instrument: AB Sciex TripleTOF 5600+ system (Q-TOF) equipped with a DuoSpray ion source
Instrument type: LC-ESI-QTOF
Ms type: MS2
Ion mode: POSITIVE
Collision energy: 45V
Column name: Acquity UPLC Peptide BEH C18 column (50*2.1 mm; 1.7 um; 130A)(Waters Co.,Milford, MA, USA)
Retention time: 14.71914
Precursor type: [M+NH4]+
Precursor m/z: 850.785
Intensity: 1203
m/z	relative intensity
81.074	12
83.085	16
85.1	9
95.085	16
109.105	12
121.102	6
123.116	9
226.982	6
239.227	12
239.237	35
265.254	38
549.469	6
549.759	7
551.497	480
551.52	88
551.53	39
575.704	17
577.516	999
579.52	12
579.545	32
605.537	12
815.664	12
850.432	6
850.659	59
850.688	29
850.778	42
850.799	25
