Mass spectrum: TG 55:3; LC-ESI-QTOF; MS2
Name: TG 55:3
Class:  TAG
Formula: C58H106O6
Exact mass: 899.4799999999999
SMILES: CCCCCCCCC\C=C/CCCCCCCC(=O)OCC(COC(=O)CCCCCCCCC\C=C/CCCCCC)OC(=O)CCCCCCCCC\C=C/CCCCCC
InChI: InChI=1S/C58H106O6/c1-4-7-10-13-16-19-22-25-28-31-33-36-39-42-45-48-51-57(60)63-54-55(64-58(61)52-49-46-43-40-37-34-30-27-24-21-18-15-12-9-6-3)53-62-56(59)50-47-44-41-38-35-32-29-26-23-20-17-14-11-8-5-2/h20-21,23-24,28,31,55H,4-19,22,25-27,29-30,32-54H2,1-3H3/b23-20-,24-21-,31-28-
Instrument: AB Sciex TripleTOF 5600+ system (Q-TOF) equipped with a DuoSpray ion source
Instrument type: LC-ESI-QTOF
Ms type: MS2
Ion mode: POSITIVE
Collision energy: 45V
Column name: Acquity UPLC Peptide BEH C18 column (50*2.1 mm; 1.7 um; 130A)(Waters Co.,Milford, MA, USA)
Retention time: 15.03218
Precursor type: [M+NH4]+
Precursor m/z: 916.8343
Intensity: 3015
m/z	relative intensity
81.07	12
83.086	10
95.085	14
97.096	14
99.116	6
107.087	7
109.1	12
111.115	8
121.103	8
123.117	6
135.114	8
137.133	6
149.13	6
163.148	11
165.162	8
175.149	10
177.158	6
245.219	10
245.235	8
247.239	14
251.234	6
263.236	26
265.251	38
268.997	6
279.266	20
281.276	11
321.286	5
323.287	4
337.275	3
339.286	21
339.301	10
341.308	4
353.314	13
355.323	6
381.341	3
390.993	3
442.933	2
547.466	9
561.49	7
573.5	16
575.486	30
575.51	30
575.536	8
587.489	8
589.495	16
589.526	48
589.544	9
591.554	12
601.495	87
601.522	306
601.55	41
601.571	22
603.502	56
603.526	269
603.55	319
604.575	11
605.545	10
615.529	182
615.555	44
615.577	9
617.547	999
617.578	171
618.539	11
618.566	11
619.542	110
619.571	476
619.625	13
629.517	7
629.554	44
629.586	10
631.554	11
631.573	14
643.549	34
643.568	22
643.584	21
643.604	9
645.562	8
645.584	13
645.598	8
657.582	7
745.614	2
815.702	3
857.757	4
863.828	2
881.778	10
899.754	5
899.786	13
899.816	19
899.884	4
913.926	3
916.557	3
916.742	5
916.773	15
916.809	49
916.839	117
916.882	18
916.913	12
