Mass spectrum: BMP 42:11; LC-ESI-QTOF; MS2
Name: BMP 42:11
Class:  BMP
Formula: C48H73O10P
Exact mass: 841.0780000000001
SMILES: CC\C=C/C\C=C/C\C=C/C\C=C/C\C=C/CCCC(=O)OC(CO)COP(O)(=O)OCC(CO)OC(=O)CC\C=C/C\C=C/C\C=C/C\C=C/C\C=C/C\C=C/CC
InChI: InChI=1S/C48H73O10P/c1-3-5-7-9-11-13-15-17-19-21-22-24-26-28-30-32-34-36-38-40-48(52)58-46(42-50)44-56-59(53,54)55-43-45(41-49)57-47(51)39-37-35-33-31-29-27-25-23-20-18-16-14-12-10-8-6-4-2/h5-8,11-14,17-20,22,24-25,27-28,30-31,33-34,36,45-46,49-50H,3-4,9-10,15-16,21,23,26,29,32,35,37-44H2,1-2H3,(H,53,54)/b7-5-,8-6-,13-11-,14-12-,19-17-,20-18-,24-22-,27-25-,30-28-,33-31-,36-34-
Instrument: AB Sciex TripleTOF 5600+ system (Q-TOF) equipped with a DuoSpray ion source
Instrument type: LC-ESI-QTOF
Ms type: MS2
Ion mode: POSITIVE
Collision energy: 45V
Column name: Acquity UPLC Peptide BEH C18 column (50*2.1 mm; 1.7 um; 130A)(Waters Co.,Milford, MA, USA)
Retention time: 7.666067
Precursor type: [M+NH4]+
Precursor m/z: 858.5259
Intensity: 901
m/z	relative intensity
81.07	28
91.054	22
93.068	38
95.084	15
105.067	25
107.085	12
117.068	17
119.082	20
121.101	12
129.055	13
131.085	12
143.084	15
145.101	15
147.116	15
159.115	20
169.101	15
173.135	14
175.144	19
183.115	17
185.127	22
187.152	17
197.134	20
201.163	28
267.206	15
285.217	15
349.252	5
358.143	8
359.257	938
385.273	999
517.38	5
529.406	5
669.498	12
717.516	12
805.485	7
823.498	5
841.491	5
858.494	11
858.563	12
