Mass spectrum: TG 58:10; LC-ESI-QTOF; MS2
Name: TG 58:10
Class:  TAG
Formula: C61H98O6
Exact mass: 927.449
SMILES: CCCCC\C=C/C=C\CCCCCCCCC(=O)OCC(COC(=O)CC\C=C/C\C=C/C\C=C/C\C=C/C\C=C/C\C=C/CC)OC(=O)CCCCCCCC\C=C/C=C\CCCCC
InChI: InChI=1S/C61H98O6/c1-4-7-10-13-16-19-22-25-28-29-30-31-34-36-39-42-45-48-51-54-60(63)66-57-58(67-61(64)55-52-49-46-43-40-37-33-27-24-21-18-15-12-9-6-3)56-65-59(62)53-50-47-44-41-38-35-32-26-23-20-17-14-11-8-5-2/h7,10,16-21,23-28,30-31,36,39,45,48,58H,4-6,8-9,11-15,22,29,32-35,37-38,40-44,46-47,49-57H2,1-3H3/b10-7-,19-16-,20-17-,21-18-,26-23-,27-24-,28-25-,31-30-,39-36-,48-45-
Instrument: AB Sciex TripleTOF 5600+ system (Q-TOF) equipped with a DuoSpray ion source
Instrument type: LC-ESI-QTOF
Ms type: MS2
Ion mode: POSITIVE
Collision energy: 45V
Column name: Acquity UPLC Peptide BEH C18 column (50*2.1 mm; 1.7 um; 130A)(Waters Co.,Milford, MA, USA)
Retention time: 13.97499
Precursor type: [M+NH4]+
Precursor m/z: 944.7708
Intensity: 17458
m/z	relative intensity
77.039	2
79.053	8
79.061	2
81.069	23
83.085	5
91.054	11
93.069	10
95.086	25
97.068	1
97.101	4
105.069	6
107.084	9
109.101	14
111.081	2
117.069	5
119.085	8
121.1	10
123.116	11
129.068	3
131.085	7
133.101	8
135.116	8
137.133	4
141.071	1
143.085	2
145.101	5
147.118	6
149.096	1
149.134	6
151.146	2
153.126	2
155.087	2
157.102	5
159.118	6
161.132	11
163.146	8
167.084	2
169.101	5
171.116	9
173.131	10
175.111	2
175.148	15
177.163	4
181.102	4
183.117	6
185.132	8
187.114	3
187.148	6
189.127	1
189.166	7
195.115	3
197.132	5
199.114	2
199.147	8
201.126	2
201.165	11
203.139	1
203.176	3
203.184	2
209.13	5
211.147	10
213.162	8
215.18	8
221.131	2
223.146	7
225.165	5
227.14	1
227.179	15
229.159	3
229.193	1
235.171	1
237.165	5
239.181	2
241.153	4
243.214	3
245.228	15
249.165	1
251.18	3
261.219	5
263.238	42
265.183	1
265.252	2
267.213	4
269.181	1
269.227	6
279.211	1
281.229	1
283.202	2
283.243	4
285.224	0
291.198	1
291.217	2
293.226	36
295.239	1
301.253	1
309.222	5
311.237	52
312.24	1
313.251	1
317.241	1
317.253	1
319.264	10
321.276	1
331.265	1
335.241	1
335.258	4
337.274	72
339.291	6
349.253	1
367.254	2
367.274	3
383.259	2
385.274	2
385.292	1
387.291	1
391.285	4
391.301	2
445.332	1
461.37	1
485.374	1
489.38	1
503.405	1
525.468	2
527.411	1
547.45	1
547.478	1
555.452	2
565.411	1
569.451	2
571.461	1
573.449	3
573.475	4
573.496	1
591.464	1
597.468	2
597.492	5
597.632	2
599.502	999
600.499	24
600.526	9
601.488	1
601.518	11
621.47	1
629.494	1
645.486	19
647.502	434
648.502	9
648.53	2
649.517	14
649.536	6
649.559	1
663.507	2
665.503	1
665.526	1
673.519	0
707.554	0
751.594	0
763.619	0
765.597	0
777.617	0
779.612	0
787.608	0
789.646	0
791.624	0
799.629	0
803.63	0
805.626	1
815.62	0
817.619	0
817.678	0
829.638	0
843.644	0
843.701	0
845.64	0
845.701	0
849.627	0
849.693	61
849.745	5
849.779	0
850.658	1
850.701	1
857.657	1
862.675	0
862.716	0
876.702	1
885.748	0
909.701	2
909.735	6
909.799	0
927.741	93
927.814	1
928.713	1
928.74	1
928.762	1
931.737	0
941.82	1
944.771	250
945.725	1
945.767	12
945.811	2
945.833	1
