Mass spectrum: TG 49:4; LC-ESI-QTOF; MS2
Name: TG 49:4
Class:  TAG
Formula: C52H92O6
Exact mass: 813.302
SMILES: CCCCCCCCCCCCC(=O)OCC(COC(=O)CCCCCCCC\C=C/C=C\CCCCC)OC(=O)CCCCCCCC\C=C/C=C\CCCCC
InChI: InChI=1S/C52H92O6/c1-4-7-10-13-16-19-22-24-26-28-30-33-36-39-42-45-51(54)57-48-49(47-56-50(53)44-41-38-35-32-21-18-15-12-9-6-3)58-52(55)46-43-40-37-34-31-29-27-25-23-20-17-14-11-8-5-2/h16-17,19-20,22-25,49H,4-15,18,21,26-48H2,1-3H3/b19-16-,20-17-,24-22-,25-23-
Instrument: AB Sciex TripleTOF 5600+ system (Q-TOF) equipped with a DuoSpray ion source
Instrument type: LC-ESI-QTOF
Ms type: MS2
Ion mode: POSITIVE
Collision energy: 45V
Column name: Acquity UPLC Peptide BEH C18 column (50*2.1 mm; 1.7 um; 130A)(Waters Co.,Milford, MA, USA)
Retention time: 13.84554
Precursor type: [M+NH4]+
Precursor m/z: 830.7211
Intensity: 13019
m/z	relative intensity
79.054	11
81.07	43
83.085	21
93.07	16
95.085	66
97.099	17
107.082	13
109.1	94
121.099	39
123.115	42
133.1	10
135.116	33
137.132	17
147.111	11
149.131	19
161.132	19
163.146	38
165.127	15
175.147	32
177.159	11
203.178	53
219.215	10
221.19	62
223.206	14
237.217	14
239.237	23
243.215	12
245.218	12
245.23	22
261.223	26
263.235	62
271.225	9
271.24	4
277.216	3
283.224	5
285.238	3
295.223	2
297.241	8
299.253	8
311.26	31
313.271	136
317.249	9
319.26	13
325.27	5
331.257	3
331.296	4
335.259	7
337.273	132
339.283	9
451.364	4
465.378	3
465.413	3
475.373	4
489.397	7
501.385	6
519.441	5
521.444	6
522.468	4
531.435	43
531.453	31
533.453	999
535.47	186
543.458	5
545.452	99
547.464	73
547.49	34
549.475	6
557.453	204
559.467	427
561.473	49
561.5	16
561.516	9
571.458	76
571.477	77
571.51	7
573.485	367
575.497	570
575.517	155
576.508	5
577.517	6
585.485	62
587.498	66
587.525	16
589.534	7
599.475	47
599.502	281
601.491	9
601.514	16
601.55	6
613.528	5
687.578	1
701.579	3
715.621	3
757.635	6
771.643	1
772.654	2
795.679	20
795.711	5
807.577	1
807.667	2
812.764	1
813.677	96
813.704	35
813.723	27
830.681	23
830.72	218
