Mass spectrum: TG 47:2; LC-ESI-QTOF; MS2
Name: TG 47:2
Class:  TAG
Formula: C50H92O6
Exact mass: 789.28
SMILES: CCCCCCCCCCCCC(=O)OCC(COC(=O)CCCCCCCCC\C=C/CCCCCC)OC(=O)CCCCC\C=C/CCCCCCCC
InChI: InChI=1S/C50H92O6/c1-4-7-10-13-16-19-22-24-25-27-28-31-34-37-40-43-49(52)55-46-47(45-54-48(51)42-39-36-33-30-21-18-15-12-9-6-3)56-50(53)44-41-38-35-32-29-26-23-20-17-14-11-8-5-2/h19,22,26,29,47H,4-18,20-21,23-25,27-28,30-46H2,1-3H3/b22-19-,29-26-
Instrument: AB Sciex TripleTOF 5600+ system (Q-TOF) equipped with a DuoSpray ion source
Instrument type: LC-ESI-QTOF
Ms type: MS2
Ion mode: POSITIVE
Collision energy: 45V
Column name: Acquity UPLC Peptide BEH C18 column (50*2.1 mm; 1.7 um; 130A)(Waters Co.,Milford, MA, USA)
Retention time: 14.01698
Precursor type: [M+NH4]+
Precursor m/z: 806.7225
Intensity: 2532
m/z	relative intensity
81.069	101
95.085	106
109.102	85
135.117	59
161.13	33
197.19	42
203.179	67
211.208	102
225.22	85
237.221	33
239.234	50
245.225	42
263.238	93
285.248	25
292.974	16
313.26	33
313.267	50
313.278	110
319.265	25
332.97	16
337.258	19
409.338	16
416.975	19
507.44	126
507.459	52
509.446	870
509.465	531
519.438	84
521.435	103
521.451	77
521.461	85
521.471	76
533.44	197
533.45	249
533.465	406
533.481	60
535.472	577
547.453	146
547.465	388
547.475	405
547.486	190
547.496	95
549.474	68
549.484	60
549.503	93
551.497	353
551.515	76
561.468	250
561.489	999
563.503	84
575.478	95
575.5	344
575.517	95
589.518	109
689.641	46
789.714	16
806.58	25
806.718	154
806.76	16
806.796	21
