Mass spectrum: TG 49:3; LC-ESI-QTOF; MS2
Name: TG 49:3
Class:  TAG
Formula: C52H94O6
Exact mass: 815.318
SMILES: CCCCCCCCCCCCCCC(=O)OCC(COC(=O)CCCCCCCC\C=C/C=C\CCCCC)OC(=O)CCCCC\C=C/CCCCCCCC
InChI: InChI=1S/C52H94O6/c1-4-7-10-13-16-19-22-25-26-28-30-33-36-39-42-45-51(54)57-48-49(47-56-50(53)44-41-38-35-32-29-24-21-18-15-12-9-6-3)58-52(55)46-43-40-37-34-31-27-23-20-17-14-11-8-5-2/h16,19,22,25,27,31,49H,4-15,17-18,20-21,23-24,26,28-30,32-48H2,1-3H3/b19-16-,25-22-,31-27-
Instrument: AB Sciex TripleTOF 5600+ system (Q-TOF) equipped with a DuoSpray ion source
Instrument type: LC-ESI-QTOF
Ms type: MS2
Ion mode: POSITIVE
Collision energy: 45V
Column name: Acquity UPLC Peptide BEH C18 column (50*2.1 mm; 1.7 um; 130A)(Waters Co.,Milford, MA, USA)
Retention time: 14.05914
Precursor type: [M+NH4]+
Precursor m/z: 832.7354
Intensity: 4769
m/z	relative intensity
81.069	60
83.084	19
85.102	19
93.069	14
95.087	66
97.101	21
109.101	60
111.117	17
123.113	27
135.118	25
137.133	23
163.151	19
175.147	21
203.178	31
211.208	23
221.189	41
225.226	17
237.22	21
239.233	18
245.231	25
263.235	71
279.228	5
285.244	12
297.249	8
299.261	17
311.255	12
313.272	58
313.288	16
319.26	12
325.278	9
337.272	20
339.269	13
339.285	24
339.297	21
465.394	7
495.422	52
495.439	161
495.463	33
519.44	16
521.457	11
523.457	94
523.476	159
523.513	9
533.424	13
533.45	158
533.47	96
535.471	999
537.478	16
537.499	16
545.439	13
545.466	25
547.467	388
547.496	57
549.483	34
549.5	30
551.495	30
551.513	26
559.467	319
561.484	817
561.506	212
563.505	16
573.486	601
575.489	68
575.507	64
577.517	367
587.468	22
587.495	160
587.515	98
589.514	34
601.495	19
601.52	48
601.54	17
615.527	17
768.68	5
768.74	4
773.666	8
797.687	9
797.729	2
800.646	3
814.833	2
815.697	29
815.715	22
815.749	13
832.198	2
832.551	3
832.723	111
832.75	93
