Mass spectrum: TG 54:6; LC-ESI-QTOF; MS2
Name: TG 54:6
Class:  TAG
Formula: C57H98O6
Exact mass: 879.405
SMILES: CCCCCCCCCCCCCCCC(=O)OCC(COC(=O)CCC\C=C/C\C=C/C\C=C/C\C=C/C\C=C/CC)OC(=O)CCCCCCCCC\C=C/CCCCCC
InChI: InChI=1S/C57H98O6/c1-4-7-10-13-16-19-22-25-27-28-30-32-35-38-41-44-47-50-56(59)62-53-54(52-61-55(58)49-46-43-40-37-34-31-24-21-18-15-12-9-6-3)63-57(60)51-48-45-42-39-36-33-29-26-23-20-17-14-11-8-5-2/h7,10,16,19-20,23,25,27,30,32,38,41,54H,4-6,8-9,11-15,17-18,21-22,24,26,28-29,31,33-37,39-40,42-53H2,1-3H3/b10-7-,19-16-,23-20-,27-25-,32-30-,41-38-
Instrument: AB Sciex TripleTOF 5600+ system (Q-TOF) equipped with a DuoSpray ion source
Instrument type: LC-ESI-QTOF
Ms type: MS2
Ion mode: POSITIVE
Collision energy: 45V
Column name: Acquity UPLC Peptide BEH C18 column (50*2.1 mm; 1.7 um; 130A)(Waters Co.,Milford, MA, USA)
Retention time: 14.22828
Precursor type: [M+NH4]+
Precursor m/z: 896.7662
Intensity: 61608
m/z	relative intensity
71.084	5
77.038	2
79.053	8
81.069	22
83.085	8
85.063	2
85.101	6
91.053	17
93.07	11
95.085	30
97.063	2
97.101	6
99.081	1
99.116	1
105.068	11
107.084	9
109.1	14
111.081	1
111.115	2
113.095	1
117.07	7
119.084	16
121.1	11
123.077	1
123.085	1
123.116	12
125.096	2
129.069	3
131.085	8
133.1	19
135.081	1
135.115	7
137.096	1
137.13	5
143.085	4
145.101	7
147.116	9
149.095	1
149.132	7
151.145	3
157.101	8
159.117	6
161.097	3
161.132	12
163.109	1
163.148	9
165.126	1
165.164	3
167.143	1
169.101	1
171.116	20
173.13	10
175.11	4
175.147	19
177.163	8
179.14	1
183.115	1
185.131	15
187.146	12
189.127	4
189.162	22
191.178	5
193.159	2
197.133	1
199.147	14
201.163	15
203.135	1
203.146	2
203.179	113
205.159	1
205.198	1
207.17	1
213.164	6
215.176	2
215.188	1
217.156	1
217.193	1
219.172	1
219.208	1
221.218	1
221.228	2
225.162	1
227.179	4
229.194	1
237.218	3
239.236	25
241.194	6
243.209	7
245.225	18
256.263	1
257.252	1
259.206	5
259.239	9
261.219	2
263.236	27
265.251	2
267.2	1
267.214	2
269.226	104
271.206	0
271.243	2
279.229	0
281.224	0
281.238	0
283.206	0
283.241	0
285.221	8
286.35	0
287.237	125
289.246	2
289.265	0
291.212	0
295.244	0
297.273	1
299.24	0
301.212	0
301.243	0
303.228	0
305.243	0
307.241	0
311.249	6
311.263	6
312.296	0
313.273	122
314.274	0
315.229	0
315.267	0
317.237	1
319.26	6
321.266	0
325.246	0
325.265	0
329.275	0
331.286	0
335.258	2
336.238	0
337.273	114
338.275	0
339.288	12
341.244	0
341.276	0
343.262	6
345.274	0
355.276	0
359.248	0
359.262	1
361.271	2
363.287	0
365.264	0
365.287	0
367.285	5
371.297	0
379.282	0
381.297	0
383.302	0
385.306	0
391.284	5
393.289	0
393.31	0
397.303	0
409.323	0
411.326	0
419.36	0
423.363	0
433.351	0
435.34	0
437.331	0
437.368	0
445.334	0
447.344	0
449.358	0
451.382	0
459.337	0
459.362	0
461.349	0
465.377	0
465.41	0
473.353	0
475.375	0
477.393	0
479.444	0
485.355	0
487.382	0
489.425	0
499.37	0
501.462	1
505.432	0
507.439	0
507.465	0
511.378	0
525.453	1
525.47	1
531.451	3
533.472	0
547.452	0
547.481	1
549.442	3
549.467	5
549.487	4
551.496	0
557.465	0
567.459	0
567.479	0
567.496	0
571.468	0
573.481	5
573.498	2
573.678	1
573.706	2
573.736	0
575.384	0
575.479	0
575.499	999
576.345	0
576.503	32
577.494	3
577.531	4
589.503	0
595.457	0
595.491	1
597.45	1
597.477	12
597.495	10
599.501	200
600.502	1
601.494	5
601.521	7
603.521	0
603.541	0
605.481	0
615.489	0
615.521	0
617.495	1
617.517	1
621.563	0
623.5	288
624.507	3
625.519	22
627.542	0
629.528	0
629.552	0
639.511	0
641.492	1
641.52	1
641.541	0
651.535	0
671.528	0
683.542	0
701.581	0
713.601	0
715.588	0
723.619	0
727.588	0
737.597	0
741.559	0
741.599	0
751.663	0
753.638	0
755.606	0
767.579	0
767.608	0
767.65	0
769.65	0
781.627	0
781.672	0
795.65	0
795.697	0
809.667	0
814.661	0
814.708	0
837.734	0
843.717	0
851.716	0
861.691	1
861.729	15
861.783	0
862.717	0
876.956	0
879.661	0
879.739	93
879.835	0
880.714	0
880.754	0
880.807	0
887.706	0
893.893	0
893.939	0
893.971	0
896.411	0
896.665	0
896.766	164
897.73	0
897.756	0
897.773	1
897.796	1
