Mass spectrum: TG 52:0; LC-ESI-QTOF; MS2
Name: TG 52:0
Class:  TAG
Formula: C55H106O6
Exact mass: 863.4469999999999
SMILES: CCCCCCCCCCCCCCCCCCCC(=O)OCC(COC(=O)CCCCCCCCCCCCCCC)OC(=O)CCCCCCCCCCCCCCC
InChI: InChI=1S/C55H106O6/c1-4-7-10-13-16-19-22-25-26-27-28-31-33-36-39-42-45-48-54(57)60-51-52(61-55(58)49-46-43-40-37-34-30-24-21-18-15-12-9-6-3)50-59-53(56)47-44-41-38-35-32-29-23-20-17-14-11-8-5-2/h52H,4-51H2,1-3H3
Instrument: AB Sciex TripleTOF 5600+ system (Q-TOF) equipped with a DuoSpray ion source
Instrument type: LC-ESI-QTOF
Ms type: MS2
Ion mode: POSITIVE
Collision energy: 45V
Column name: Acquity UPLC Peptide BEH C18 column (50*2.1 mm; 1.7 um; 130A)(Waters Co.,Milford, MA, USA)
Retention time: 15.57913
Precursor type: [M+NH4]+
Precursor m/z: 880.8286
Intensity: 4962
m/z	relative intensity
71.085	11
81.069	7
83.085	7
85.102	7
95.085	15
97.096	2
97.103	5
99.115	1
109.101	12
111.116	4
123.116	8
137.133	3
165.164	1
221.223	4
239.237	29
249.258	2
267.262	14
267.275	8
277.279	0
284.296	2
295.299	2
297.277	0
302.972	2
312.322	0
313.274	4
313.295	1
323.304	0
341.303	7
523.456	2
523.487	2
535.538	4
551.502	121
551.551	2
565.516	4
577.72	2
578.49	2
578.535	1
579.533	999
580.518	2
580.549	4
581.533	2
593.544	6
597.492	1
598.477	2
599.501	1
602.516	1
605.673	1
606.561	2
607.564	725
608.549	2
608.579	4
623.5	1
624.5	2
635.577	3
635.606	2
718.924	0
845.775	0
878.077	0
879.773	0
880.703	12
880.742	54
880.775	30
880.825	42
880.874	6
881.727	1
881.759	3
881.841	1
