Mass spectrum: TG 51:3; LC-ESI-QTOF; MS2
Name: TG 51:3
Class:  TAG
Formula: C54H98O6
Exact mass: 843.372
SMILES: CCCCCCCCCCCCCCC(=O)OCC(COC(=O)CCCCCCCC\C=C/C=C\CCCCC)OC(=O)CCCCCCCCC\C=C/CCCCCC
InChI: InChI=1S/C54H98O6/c1-4-7-10-13-16-19-22-25-27-29-32-35-38-41-44-47-53(56)59-50-51(49-58-52(55)46-43-40-37-34-31-24-21-18-15-12-9-6-3)60-54(57)48-45-42-39-36-33-30-28-26-23-20-17-14-11-8-5-2/h16,19-20,22-23,25,51H,4-15,17-18,21,24,26-50H2,1-3H3/b19-16-,23-20-,25-22-
Instrument: AB Sciex TripleTOF 5600+ system (Q-TOF) equipped with a DuoSpray ion source
Instrument type: LC-ESI-QTOF
Ms type: MS2
Ion mode: POSITIVE
Collision energy: 45V
Column name: Acquity UPLC Peptide BEH C18 column (50*2.1 mm; 1.7 um; 130A)(Waters Co.,Milford, MA, USA)
Retention time: 14.36339
Precursor type: [M+NH4]+
Precursor m/z: 860.768
Intensity: 98942
m/z	relative intensity
71.05	1
71.084	10
77.038	1
79.053	8
81.069	38
83.084	20
85.064	2
85.101	9
91.053	4
93.069	10
95.085	46
97.064	1
97.1	16
99.079	2
99.114	2
105.068	3
107.084	5
109.1	27
111.081	2
111.115	8
113.095	1
119.084	3
121.099	20
123.116	20
125.093	2
125.129	3
127.11	2
133.1	5
135.116	17
137.096	0
137.131	11
139.11	1
141.124	1
147.116	4
149.131	9
151.147	9
153.126	3
155.141	1
161.131	8
163.146	12
165.162	5
167.139	1
173.13	1
175.146	10
177.162	6
179.175	1
179.185	1
181.156	1
189.162	4
191.179	1
193.159	2
203.179	1
207.175	1
207.207	2
217.198	1
219.21	2
221.227	1
225.221	24
231.208	1
233.225	9
237.219	6
237.235	1
239.235	19
242.243	1
243.204	0
245.226	28
247.224	1
247.242	8
249.22	2
251.237	27
253.256	2
261.214	1
261.224	1
263.236	72
265.251	33
275.235	0
277.214	0
277.252	0
279.228	0
279.269	0
282.273	0
283.245	0
283.265	0
285.234	0
291.234	0
293.249	0
295.26	0
297.236	0
299.252	16
301.242	0
301.263	0
303.269	0
305.244	0
307.263	1
311.258	3
311.272	1
313.274	21
313.299	0
317.251	0
319.26	13
319.274	3
321.25	0
321.283	1
323.249	0
325.272	9
327.287	3
331.276	0
335.239	0
335.259	1
337.274	18
339.288	15
341.301	0
341.315	0
353.307	0
361.332	0
365.261	0
401.374	0
403.399	0
405.37	0
415.394	0
433.38	0
437.366	0
451.388	0
465.385	0
475.384	0
487.451	1
491.413	0
495.45	1
501.477	0
505.464	0
507.452	0
513.472	2
527.463	1
527.486	1
531.473	0
533.445	1
535.45	1
535.479	1
537.484	21
537.508	3
545.465	0
545.51	1
547.464	14
547.492	3
549.48	2
549.499	3
551.488	0
551.518	0
559.46	1
559.484	1
559.738	1
561.485	721
562.474	0
562.496	2
563.354	1
563.5	999
564.474	0
564.503	3
564.524	1
565.518	6
573.487	111
573.71	1
575.5	599
576.476	0
576.503	1
577.512	31
585.672	1
587.502	551
588.505	2
589.516	165
591.518	1
591.549	1
599.629	1
599.648	1
601.516	604
602.51	1
602.536	1
603.499	2
603.53	15
605.52	0
605.541	0
605.574	0
615.511	3
615.534	9
615.57	1
617.562	0
687.619	0
745.604	0
745.66	0
759.666	0
825.69	1
825.721	6
825.751	4
825.796	0
834.744	0
834.777	0
843.742	46
844.74	0
858.032	0
858.083	0
858.12	0
860.767	136
860.834	1
861.717	0
861.743	0
861.784	0
