Mass spectrum: TG 50:3; LC-ESI-QTOF; MS2
Name: TG 50:3
Class:  TAG
Formula: C53H96O6
Exact mass: 829.345
SMILES: CCCCCCCCCCCCCC(=O)OCC(COC(=O)CCCCCCCC\C=C/C=C\CCCCC)OC(=O)CCCCCCCCC\C=C/CCCCCC
InChI: InChI=1S/C53H96O6/c1-4-7-10-13-16-19-22-24-26-28-31-34-37-40-43-46-52(55)58-49-50(48-57-51(54)45-42-39-36-33-30-21-18-15-12-9-6-3)59-53(56)47-44-41-38-35-32-29-27-25-23-20-17-14-11-8-5-2/h16,19-20,22-24,50H,4-15,17-18,21,25-49H2,1-3H3/b19-16-,23-20-,24-22-
Instrument: AB Sciex TripleTOF 5600+ system (Q-TOF) equipped with a DuoSpray ion source
Instrument type: LC-ESI-QTOF
Ms type: MS2
Ion mode: POSITIVE
Collision energy: 45V
Column name: Acquity UPLC Peptide BEH C18 column (50*2.1 mm; 1.7 um; 130A)(Waters Co.,Milford, MA, USA)
Retention time: 14.19619
Precursor type: [M+NH4]+
Precursor m/z: 846.7526
Intensity: 1204481
m/z	relative intensity
71.048	1
71.086	24
77.038	4
79.054	21
80.824	1
81.069	86
83.049	1
83.085	50
85.065	4
85.101	24
91.054	9
93.069	29
95.085	96
97.065	4
97.101	37
99.08	6
99.117	4
101.096	1
105.069	7
107.085	23
109.101	68
111.079	1
111.116	18
113.095	4
113.131	3
115.11	0
119.085	7
121.101	54
123.117	58
125.096	3
125.131	5
127.112	4
127.148	1
131.084	0
133.1	14
135.117	47
137.095	1
137.132	32
139.111	4
139.148	1
141.125	4
141.166	0
145.101	0
147.117	12
149.132	29
151.108	0
151.148	14
153.126	9
155.142	2
155.181	0
159.115	1
161.132	21
163.147	27
165.126	1
165.162	10
167.143	4
169.16	1
173.133	1
175.147	25
177.125	0
177.163	11
179.141	2
179.179	3
181.158	2
185.134	0
187.146	1
189.163	9
191.179	3
193.158	3
193.191	1
195.138	0
195.17	1
199.147	0
201.168	0
203.179	5
205.193	1
207.174	3
209.148	0
209.187	0
211.205	25
213.163	0
217.195	3
219.211	39
221.155	1
221.191	2
221.226	6
223.169	0
235.17	0
235.204	2
237.22	117
239.237	85
243.204	0
243.214	0
245.226	62
247.243	8
249.186	1
254.246	0
256.263	5
257.239	1
257.251	0
261.22	1
262.425	0
263.237	216
265.252	33
271.22	0
273.219	0
273.249	0
275.276	0
277.202	0
277.219	1
277.25	0
277.263	0
279.227	1
280.258	0
282.279	0
283.232	0
283.246	0
285.242	12
289.261	0
291.221	0
291.237	0
293.243	2
293.257	1
295.26	1
297.265	0
297.282	0
299.243	0
301.251	2
303.224	0
303.263	0
305.243	0
305.281	0
307.259	0
309.243	0
311.257	46
312.3	0
313.273	74
313.317	0
317.251	0
319.263	32
319.299	0
321.269	0
321.28	1
323.292	0
325.273	0
331.264	0
331.298	0
333.285	0
335.243	0
335.259	2
335.276	0
337.237	0
337.273	32
339.288	14
347.334	0
349.23	0
351.251	0
353.297	0
361.347	0
363.248	0
365.276	0
367.267	0
367.293	0
369.308	0
373.339	0
375.353	0
377.266	0
377.343	0
379.326	0
383.364	0
387.322	0
387.347	0
387.365	0
389.377	0
391.285	0
391.354	0
391.373	0
393.292	0
393.343	0
401.345	0
401.38	0
403.344	0
405.292	0
405.367	0
407.316	0
409.333	0
415.342	0
415.396	0
417.364	0
419.318	0
419.385	0
421.332	0
429.379	0
433.324	0
433.368	0
433.397	0
435.342	0
437.366	0
447.393	0
449.367	0
451.374	0
461.356	0
461.378	0
461.408	0
463.377	0
463.428	0
465.379	0
465.396	0
475.387	0
475.453	1
481.438	1
499.443	6
499.466	1
501.445	0
501.462	2
501.482	1
517.443	1
517.462	3
519.434	1
527.475	1
527.496	0
535.461	1
535.484	0
545.453	1
545.481	1
545.76	1
547.468	620
547.514	0
547.782	0
548.453	0
548.481	1
549.369	0
549.458	0
549.483	999
550.213	0
550.481	13
551.517	2
551.548	1
561.47	1
561.493	2
563.493	1
563.514	1
564.514	0
571.671	1
571.698	6
573.312	0
573.357	1
573.483	955
574.488	10
575.369	1
575.392	0
575.498	987
576.506	14
576.733	0
577.513	30
578.214	0
587.516	0
589.506	1
591.487	1
591.537	0
599.633	1
601.515	543
602.523	0
603.495	0
603.524	6
603.543	3
629.535	0
665.627	0
675.535	0
677.568	0
687.627	0
689.565	0
691.568	0
699.596	0
703.568	0
703.606	0
717.604	0
717.655	0
731.612	0
731.64	0
731.682	0
745.622	0
745.66	0
757.562	0
759.646	0
793.705	0
811.656	0
811.689	3
811.713	13
811.745	2
827.129	0
829.724	86
830.766	0
835.753	0
844.101	0
844.135	0
845.924	0
846.749	96
847.779	0
849.087	0
