Mass spectrum: TG 50:4; LC-ESI-QTOF; MS2
Name: TG 50:4
Class:  TAG
Formula: C53H94O6
Exact mass: 827.329
SMILES: CCCCCCCC\C=C/CCCCCC(=O)OCC(COC(=O)CCCCCCCC\C=C/C=C\CCCCC)OC(=O)CCCCC\C=C/CCCCCCCC
InChI: InChI=1S/C53H94O6/c1-4-7-10-13-16-19-22-25-26-29-31-34-37-40-43-46-52(55)58-49-50(59-53(56)47-44-41-38-35-32-28-24-21-18-15-12-9-6-3)48-57-51(54)45-42-39-36-33-30-27-23-20-17-14-11-8-5-2/h16,19,22,25,27-28,30,32,50H,4-15,17-18,20-21,23-24,26,29,31,33-49H2,1-3H3/b19-16-,25-22-,30-27-,32-28-
Instrument: AB Sciex TripleTOF 5600+ system (Q-TOF) equipped with a DuoSpray ion source
Instrument type: LC-ESI-QTOF
Ms type: MS2
Ion mode: POSITIVE
Collision energy: 45V
Column name: Acquity UPLC Peptide BEH C18 column (50*2.1 mm; 1.7 um; 130A)(Waters Co.,Milford, MA, USA)
Retention time: 13.97491
Precursor type: [M+NH4]+
Precursor m/z: 844.737
Intensity: 8185
m/z	relative intensity
79.055	8
81.069	31
83.084	10
93.069	10
95.086	18
107.086	11
109.103	9
121.1	12
123.117	10
135.12	10
149.133	7
161.134	9
175.151	7
177.157	6
219.213	19
237.222	33
245.227	7
263.237	42
265.252	6
283.224	2
285.254	3
293.241	1
311.26	27
313.278	1
319.269	8
321.281	1
335.251	1
337.277	12
339.298	3
351.248	1
459.382	1
461.368	1
499.456	7
517.441	2
543.475	3
545.458	60
547.474	663
547.598	2
549.489	8
571.475	5
571.695	3
573.489	999
573.568	4
575.498	14
575.523	4
599.503	64
601.51	16
601.529	20
603.543	2
729.598	2
809.684	5
809.712	4
827.68	7
827.717	25
827.754	10
842.127	1
844.684	3
844.746	64
844.784	5
