Mass spectrum: TG 53:2; LC-ESI-QTOF; MS2
Name: TG 53:2
Class:  TAG
Formula: C56H104O6
Exact mass: 873.442
SMILES: CCCCCCCCCCCCCCCC(=O)OCC(COC(=O)CCCCCCC\C=C/CCCCCCCCC)OC(=O)CCCCCCCCC\C=C/CCCCCC
InChI: InChI=1S/C56H104O6/c1-4-7-10-13-16-19-22-25-27-29-31-34-37-40-43-46-49-55(58)61-52-53(51-60-54(57)48-45-42-39-36-33-30-24-21-18-15-12-9-6-3)62-56(59)50-47-44-41-38-35-32-28-26-23-20-17-14-11-8-5-2/h20,23,27,29,53H,4-19,21-22,24-26,28,30-52H2,1-3H3/b23-20-,29-27-
Instrument: AB Sciex TripleTOF 5600+ system (Q-TOF) equipped with a DuoSpray ion source
Instrument type: LC-ESI-QTOF
Ms type: MS2
Ion mode: POSITIVE
Collision energy: 45V
Column name: Acquity UPLC Peptide BEH C18 column (50*2.1 mm; 1.7 um; 130A)(Waters Co.,Milford, MA, USA)
Retention time: 15.01159
Precursor type: [M+NH4]+
Precursor m/z: 890.8191
Intensity: 1560
m/z	relative intensity
71.084	11
81.067	16
83.083	16
85.101	9
95.082	21
97.102	17
109.1	22
121.099	13
123.116	13
135.116	11
186.998	58
239.237	18
245.225	9
247.245	16
253.254	24
263.233	11
263.246	16
265.247	43
265.26	31
268.994	39
269.004	19
277.252	3
279.274	8
281.283	3
304.971	3
313.27	6
319.263	8
321.281	3
327.295	8
330.972	3
337.282	4
339.288	26
341.304	4
351.004	8
355.329	6
398.928	4
420.953	5
433.014	12
460.971	3
563.494	21
563.527	13
575.475	64
575.502	170
575.522	51
575.552	13
577.504	92
577.528	115
577.551	30
589.512	191
589.537	93
591.536	999
592.534	13
593.527	91
593.555	291
593.59	16
603.494	33
603.529	544
603.553	140
603.577	37
605.539	61
605.562	50
617.528	72
617.557	343
619.574	14
631.564	26
780.955	3
855.811	4
873.796	20
888.021	4
890.734	34
890.764	43
890.783	79
890.81	154
890.855	46
891.781	6
