Mass spectrum: TG 54:5; LC-ESI-QTOF; MS2
Name: TG 54:5
Class:  TAG
Formula: C57H100O6
Exact mass: 881.4209999999999
SMILES: CCCCCC\C=C/CCCCCCCCCC(=O)OCC(COC(=O)CCCCCCCC\C=C/C=C\CCCCC)OC(=O)CCCCCCCC\C=C/C=C\CCCCC
InChI: InChI=1S/C57H100O6/c1-4-7-10-13-16-19-22-25-28-31-34-37-40-43-46-49-55(58)61-52-54(63-57(60)51-48-45-42-39-36-33-30-27-24-21-18-15-12-9-6-3)53-62-56(59)50-47-44-41-38-35-32-29-26-23-20-17-14-11-8-5-2/h16,18-25,27,54H,4-15,17,26,28-53H2,1-3H3/b19-16-,21-18-,23-20-,25-22-,27-24-
Instrument: AB Sciex TripleTOF 5600+ system (Q-TOF) equipped with a DuoSpray ion source
Instrument type: LC-ESI-QTOF
Ms type: MS2
Ion mode: POSITIVE
Collision energy: 45V
Column name: Acquity UPLC Peptide BEH C18 column (50*2.1 mm; 1.7 um; 130A)(Waters Co.,Milford, MA, USA)
Retention time: 14.29417
Precursor type: [M+NH4]+
Precursor m/z: 898.7856
Intensity: 108936
m/z	relative intensity
71.049	0
71.085	1
77.032	0
77.039	2
79.054	9
81.07	33
83.048	0
83.084	12
85.063	1
85.101	0
91.054	4
93.069	11
95.085	33
97.062	1
97.099	8
99.078	1
105.069	4
107.085	9
109.101	20
111.081	1
111.115	4
113.097	1
117.069	0
119.085	5
121.1	15
123.116	14
125.094	1
125.133	1
127.11	1
131.086	1
133.1	7
135.116	15
137.098	0
137.131	7
139.116	1
141.126	1
145.101	0
147.117	5
149.132	10
151.114	0
151.148	4
153.126	3
155.144	0
159.116	2
161.131	11
163.148	12
165.126	0
165.163	4
167.143	1
169.16	0
171.114	0
173.129	1
173.138	1
175.148	12
177.123	0
177.163	6
179.144	1
179.179	1
181.16	0
185.128	0
187.146	2
189.164	5
191.179	2
193.158	2
193.172	0
195.135	0
199.141	0
201.164	0
203.182	2
205.197	1
207.166	0
207.179	1
213.167	0
215.179	0
217.197	1
219.21	0
221.153	0
221.187	0
229.194	0
233.23	1
235.167	0
235.242	0
237.185	0
243.21	5
245.227	24
247.207	0
247.243	11
249.184	1
261.222	17
263.2	1
263.237	67
265.253	37
271.242	0
275.233	0
277.21	0
279.23	1
283.241	0
287.264	0
289.253	2
291.232	0
293.249	0
299.241	0
301.249	1
301.265	0
303.273	0
311.265	0
313.269	0
317.249	5
319.265	15
321.281	2
327.274	0
331.26	0
333.242	0
333.29	0
335.261	3
335.299	0
337.234	0
337.274	30
339.29	33
345.275	1
345.305	0
359.339	0
363.248	0
373.307	0
373.347	0
377.277	0
387.37	0
391.282	0
399.37	0
401.382	0
403.37	0
417.375	0
429.407	0
443.377	0
459.386	0
461.371	0
473.363	0
475.367	0
475.385	0
477.39	0
491.412	0
501.387	0
503.407	0
505.428	0
507.455	1
509.47	1
515.42	0
517.429	0
519.42	0
525.463	6
525.481	3
527.483	4
543.48	6
543.518	0
545.498	2
552.522	0
559.475	1
561.483	0
571.471	1
573.463	0
573.49	3
575.503	8
575.534	1
581.497	1
585.497	0
587.493	0
587.511	0
597.484	1
597.505	1
597.611	1
597.636	2
597.666	0
599.386	0
599.506	739
600.499	0
601.166	0
601.372	1
601.52	999
603.535	64
613.519	0
613.546	0
615.494	0
615.51	0
615.535	1
615.561	0
617.497	0
617.519	3
619.534	1
622.491	0
625.498	0
625.524	3
627.537	6
629.555	1
659.52	0
671.533	0
673.526	0
673.568	0
685.546	0
685.601	0
687.53	0
687.576	0
697.614	0
699.547	0
699.587	0
701.562	0
701.6	0
711.616	0
713.573	0
715.592	0
725.633	0
725.67	0
727.589	0
741.623	0
743.639	0
751.64	0
755.606	0
755.632	0
755.673	0
757.629	0
757.675	0
765.685	0
769.609	0
769.638	0
769.656	1
769.68	0
779.654	0
783.655	1
783.691	0
783.721	0
797.652	0
797.687	0
797.722	0
807.738	0
811.674	0
811.73	0
845.744	0
863.751	18
878.762	0
878.995	0
879.686	0
879.73	7
879.754	4
879.773	1
881.765	136
881.841	0
895.96	0
898.241	0
898.791	121
