Mass spectrum: TG 56:10; LC-ESI-QTOF; MS2
Name: TG 56:10
Class:  TAG
Formula: C59H94O6
Exact mass: 899.395
SMILES: CCCCCCCC\C=C/CCCCCC(=O)OCC(COC(=O)CCC\C=C/C\C=C/C\C=C/C\C=C/C\C=C/CC)OC(=O)CCC\C=C/C\C=C/C\C=C/C\C=C/CCCCC
InChI: InChI=1S/C59H94O6/c1-4-7-10-13-16-19-22-25-27-29-31-34-37-40-43-46-49-52-58(61)64-55-56(54-63-57(60)51-48-45-42-39-36-33-24-21-18-15-12-9-6-3)65-59(62)53-50-47-44-41-38-35-32-30-28-26-23-20-17-14-11-8-5-2/h7,10,16-17,19-20,25-28,31-36,40-41,43-44,56H,4-6,8-9,11-15,18,21-24,29-30,37-39,42,45-55H2,1-3H3/b10-7-,19-16-,20-17-,27-25-,28-26-,34-31-,35-32-,36-33-,43-40-,44-41-
Instrument: AB Sciex TripleTOF 5600+ system (Q-TOF) equipped with a DuoSpray ion source
Instrument type: LC-ESI-QTOF
Ms type: MS2
Ion mode: POSITIVE
Collision energy: 45V
Column name: Acquity UPLC Peptide BEH C18 column (50*2.1 mm; 1.7 um; 130A)(Waters Co.,Milford, MA, USA)
Retention time: 13.7265
Precursor type: [M+NH4]+
Precursor m/z: 916.7375
Intensity: 676
m/z	relative intensity
95.088	46
109.101	84
119.084	46
121.102	46
131.084	46
135.114	58
159.116	41
173.135	55
175.147	46
199.148	55
201.159	57
211.148	46
226.993	83
235.205	46
263.238	55
269.002	121
285.224	21
291.204	40
293.223	65
311.239	93
335.25	27
337.275	161
348.996	30
391.001	75
412.957	23
569.457	21
571.463	999
571.477	555
571.487	355
571.497	191
571.521	55
573.485	31
597.479	132
619.474	160
621.477	123
621.5	199
645.472	131
645.507	83
647.511	275
881.693	18
899.532	93
899.698	123
899.758	46
916.568	102
916.701	95
916.72	84
916.737	360
916.781	75
916.895	21
917.756	30
