Mass spectrum: BMP 44:12; LC-ESI-QTOF; MS2
Name: BMP 44:12
Class:  BMP
Formula: C50H75O10P
Exact mass: 867.116
SMILES: CC\C=C/C\C=C/C\C=C/C\C=C/C\C=C/C\C=C/CCC(=O)OC(CO)COP(O)(=O)OCC(CO)OC(=O)CC\C=C/C\C=C/C\C=C/C\C=C/C\C=C/C\C=C/CC
InChI: InChI=1S/C50H75O10P/c1-3-5-7-9-11-13-15-17-19-21-23-25-27-29-31-33-35-37-39-41-49(53)59-47(43-51)45-57-61(55,56)58-46-48(44-52)60-50(54)42-40-38-36-34-32-30-28-26-24-22-20-18-16-14-12-10-8-6-4-2/h5-8,11-14,17-20,23-26,29-32,35-38,47-48,51-52H,3-4,9-10,15-16,21-22,27-28,33-34,39-46H2,1-2H3,(H,55,56)/b7-5-,8-6-,13-11-,14-12-,19-17-,20-18-,25-23-,26-24-,31-29-,32-30-,37-35-,38-36-
Instrument: AB Sciex TripleTOF 5600+ system (Q-TOF) equipped with a DuoSpray ion source
Instrument type: LC-ESI-QTOF
Ms type: MS2
Ion mode: POSITIVE
Collision energy: 45V
Column name: Acquity UPLC Peptide BEH C18 column (50*2.1 mm; 1.7 um; 130A)(Waters Co.,Milford, MA, USA)
Retention time: 7.827833
Precursor type: [M+NH4]+
Precursor m/z: 884.5424
Intensity: 16123
m/z	relative intensity
77.038	1
79.053	7
81.069	7
91.053	9
93.069	9
95.084	6
105.069	5
107.084	5
109.065	1
109.099	2
117.069	4
119.085	7
121.1	4
129.052	1
129.069	2
131.085	6
133.099	5
135.118	1
143.085	2
145.101	5
147.116	4
149.134	1
155.084	1
157.1	3
159.114	6
161.097	2
161.13	4
169.1	4
171.115	6
173.132	6
175.145	2
181.097	2
183.114	3
185.133	4
187.109	1
187.149	3
195.115	2
197.133	2
199.111	1
199.148	4
201.127	1
201.157	1
201.168	1
209.124	1
211.147	3
213.163	2
215.181	1
223.145	1
225.164	1
227.176	2
269.224	2
275.175	0
283.242	0
291.209	0
293.212	1
293.227	5
295.244	0
305.205	0
311.234	3
329.245	0
355.256	0
367.264	0
383.258	0
384.058	1
384.074	3
384.79	0
385.002	0
385.272	999
385.72	0
386.276	3
386.456	0
386.83	0
388.405	0
483.268	0
494.348	0
497.369	0
521.272	0
539.279	0
621.446	0
667.518	0
695.497	6
695.518	3
695.586	0
713.531	0
769.533	0
831.476	1
831.519	0
831.593	0
849.497	1
849.535	0
867.473	0
867.508	1
867.545	1
884.365	0
884.539	0
884.646	0
