Mass spectrum: TG 52:6; LC-ESI-QTOF; MS2
Name: TG 52:6
Class:  TAG
Formula: C55H94O6
Exact mass: 851.3509999999999
SMILES: CCCCCCCC\C=C/CCCCCC(=O)OCC(COC(=O)CCCCCCCCC\C=C/C=C\C=C/CC)OC(=O)CCCCCCCC\C=C/C=C\CCCCC
InChI: InChI=1S/C55H94O6/c1-4-7-10-13-16-19-22-25-27-30-33-36-39-42-45-48-54(57)60-51-52(50-59-53(56)47-44-41-38-35-32-29-24-21-18-15-12-9-6-3)61-55(58)49-46-43-40-37-34-31-28-26-23-20-17-14-11-8-5-2/h7,10,13,16-17,19-20,22-23,26,29,32,52H,4-6,8-9,11-12,14-15,18,21,24-25,27-28,30-31,33-51H2,1-3H3/b10-7-,16-13-,20-17-,22-19-,26-23-,32-29-
Instrument: AB Sciex TripleTOF 5600+ system (Q-TOF) equipped with a DuoSpray ion source
Instrument type: LC-ESI-QTOF
Ms type: MS2
Ion mode: POSITIVE
Collision energy: 45V
Column name: Acquity UPLC Peptide BEH C18 column (50*2.1 mm; 1.7 um; 130A)(Waters Co.,Milford, MA, USA)
Retention time: 13.83922
Precursor type: [M+NH4]+
Precursor m/z: 868.7401
Intensity: 3178
m/z	relative intensity
79.053	12
81.068	40
93.069	22
95.084	36
97.102	14
107.086	16
109.101	19
119.086	13
121.101	33
123.111	12
123.12	12
133.099	15
135.118	19
137.133	20
149.13	12
159.119	14
161.133	30
163.148	13
173.13	14
175.147	18
217.198	13
235.211	11
237.219	25
243.204	23
243.218	24
245.22	15
245.235	25
259.203	12
261.221	101
263.236	49
263.251	17
277.217	9
285.239	6
289.207	4
289.249	5
291.234	5
294.24	4
299.238	9
309.243	7
311.259	47
311.274	8
313.274	11
317.24	20
317.252	18
319.258	19
335.259	22
337.273	66
337.294	10
339.284	12
497.427	14
515.449	12
521.471	7
522.448	10
522.47	11
523.449	21
523.474	21
543.447	9
545.461	29
547.461	20
547.48	31
569.446	56
569.471	34
571.472	999
571.694	8
572.473	29
572.503	7
573.481	861
574.465	10
574.502	10
575.492	17
575.51	24
575.535	12
595.457	29
595.478	48
595.497	17
597.486	757
597.511	155
598.486	26
599.498	358
601.501	18
601.531	21
613.498	7
615.494	9
623.513	9
739.593	4
739.66	4
753.626	7
781.626	5
825.687	8
833.685	19
833.717	26
842.724	11
851.709	261
851.76	24
852.706	8
868.612	5
868.705	118
868.739	210
868.775	42
868.817	10
869.694	5
