Mass spectrum: TG 51:1; LC-ESI-QTOF; MS2
Name: TG 51:1
Class:  TAG
Formula: C54H102O6
Exact mass: 847.404
SMILES: CCCCCCCCCCCCCCCCC(=O)OC(COC(=O)CCCCCCCCCCCCCC)COC(=O)CCCCCCC\C=C/CCCCCCCCC
InChI: InChI=1S/C54H102O6/c1-4-7-10-13-16-19-22-25-27-28-30-32-35-38-41-44-47-53(56)59-50-51(49-58-52(55)46-43-40-37-34-31-24-21-18-15-12-9-6-3)60-54(57)48-45-42-39-36-33-29-26-23-20-17-14-11-8-5-2/h27-28,51H,4-26,29-50H2,1-3H3/b28-27-
Instrument: AB Sciex TripleTOF 5600+ system (Q-TOF) equipped with a DuoSpray ion source
Instrument type: LC-ESI-QTOF
Ms type: MS2
Ion mode: POSITIVE
Collision energy: 45V
Column name: Acquity UPLC Peptide BEH C18 column (50*2.1 mm; 1.7 um; 130A)(Waters Co.,Milford, MA, USA)
Retention time: 14.93249
Precursor type: [M+NH4]+
Precursor m/z: 864.8004
Intensity: 4659
m/z	relative intensity
71.083	10
81.066	17
81.074	18
83.084	18
85.101	18
95.084	20
97.1	18
109.093	13
109.105	11
123.113	13
135.113	15
239.232	29
247.238	17
253.252	8
265.25	37
279.271	10
313.277	7
327.288	15
335.289	3
339.287	13
341.289	4
341.313	8
353.32	3
369.347	6
537.497	18
549.475	18
549.503	17
551.502	115
551.527	32
563.496	110
563.532	48
565.516	406
575.706	8
577.524	796
579.517	25
579.544	22
579.561	8
589.71	8
591.533	999
591.56	215
593.539	27
593.567	13
605.551	71
619.568	25
847.8	5
864.739	7
864.772	24
864.808	73
864.841	25
