Mass spectrum: TG 56:7; LC-ESI-QTOF; MS2
Name: TG 56:7
Class:  TAG
Formula: C59H100O6
Exact mass: 905.443
SMILES: CCCCCCCCCCCCCCCC(=O)OCC(COC(=O)CCCCC\C=C/C\C=C/C\C=C/C\C=C/C\C=C/CC)OC(=O)CCCCCCCC\C=C/C=C\CCCCC
InChI: InChI=1S/C59H100O6/c1-4-7-10-13-16-19-22-25-27-28-29-30-32-34-37-40-43-46-49-52-58(61)64-55-56(54-63-57(60)51-48-45-42-39-36-33-24-21-18-15-12-9-6-3)65-59(62)53-50-47-44-41-38-35-31-26-23-20-17-14-11-8-5-2/h7,10,16-17,19-20,23,25-27,29-30,34,37,56H,4-6,8-9,11-15,18,21-22,24,28,31-33,35-36,38-55H2,1-3H3/b10-7-,19-16-,20-17-,26-23-,27-25-,30-29-,37-34-
Instrument: AB Sciex TripleTOF 5600+ system (Q-TOF) equipped with a DuoSpray ion source
Instrument type: LC-ESI-QTOF
Ms type: MS2
Ion mode: POSITIVE
Collision energy: 45V
Column name: Acquity UPLC Peptide BEH C18 column (50*2.1 mm; 1.7 um; 130A)(Waters Co.,Milford, MA, USA)
Retention time: 14.26546
Precursor type: [M+NH4]+
Precursor m/z: 922.7819
Intensity: 15508
m/z	relative intensity
77.037	2
79.053	9
81.07	25
83.084	7
85.064	2
91.053	11
93.069	10
95.085	21
97.101	6
105.068	9
107.084	8
109.101	16
111.115	3
117.068	6
119.086	12
121.1	19
123.116	8
129.069	3
131.086	9
133.099	12
135.115	13
137.133	6
143.088	2
145.103	6
147.117	10
149.132	7
151.147	4
153.126	3
157.099	5
159.117	6
161.132	12
163.148	7
165.167	2
171.116	13
173.133	8
175.109	2
175.148	17
177.164	8
183.117	2
185.131	14
187.15	9
189.128	4
189.164	14
191.181	5
199.148	10
201.165	11
203.142	2
203.179	77
205.194	3
213.163	8
215.18	3
227.178	6
229.19	2
241.193	5
243.207	2
245.227	16
247.241	9
259.207	3
259.241	10
261.221	2
263.237	24
265.252	27
267.214	3
269.227	80
271.237	2
285.222	8
287.237	91
288.236	2
289.242	1
289.258	1
295.239	2
295.254	1
311.24	1
313.253	6
313.273	3
315.273	1
317.255	1
319.26	4
319.279	1
323.289	1
325.259	1
337.273	92
338.281	2
339.29	101
340.29	2
343.265	2
359.256	2
361.279	1
365.286	1
369.278	2
391.28	3
391.292	1
393.304	3
459.345	1
465.384	1
475.389	1
487.38	1
499.37	1
527.486	1
531.446	2
531.472	1
533.468	1
549.458	4
549.482	3
551.466	1
551.489	2
557.448	1
567.474	1
573.476	2
573.496	4
575.481	7
575.502	39
576.515	2
577.502	2
577.535	1
597.478	1
599.504	16
599.651	3
601.518	999
602.521	65
615.532	1
619.542	1
623.503	247
624.483	2
624.514	4
625.516	192
625.537	67
626.52	6
626.547	1
627.528	6
627.556	1
639.489	1
641.502	4
641.532	1
643.535	2
649.506	16
649.53	14
651.519	1
651.543	2
677.556	0
723.591	0
737.575	0
739.623	0
749.617	0
753.599	1
755.63	0
763.627	0
767.625	1
779.62	0
781.616	0
781.678	0
793.612	0
795.702	0
807.672	1
821.639	0
821.688	1
839.707	0
840.691	2
840.712	1
840.742	3
869.735	0
877.687	1
887.732	9
887.762	5
887.8	1
902.711	3
902.752	2
905.757	123
905.841	1
906.728	1
906.77	3
913.718	1
922.759	45
922.783	168
922.814	42
922.879	0
923.757	4
923.794	6
923.825	2
