Mass spectrum: TG 56:2; LC-ESI-QTOF; MS2
Name: TG 56:2
Class:  TAG
Formula: C59H110O6
Exact mass: 915.523
SMILES: CCCCCCCCCCCCCCCC(=O)OCC(COC(=O)CCCCCCCCC\C=C/CCCCCCCCCC)OC(=O)CCCCCCCCC\C=C/CCCCCC
InChI: InChI=1S/C59H110O6/c1-4-7-10-13-16-19-22-25-27-28-29-30-32-34-37-40-43-46-49-52-58(61)64-55-56(54-63-57(60)51-48-45-42-39-36-33-24-21-18-15-12-9-6-3)65-59(62)53-50-47-44-41-38-35-31-26-23-20-17-14-11-8-5-2/h20,23,28-29,56H,4-19,21-22,24-27,30-55H2,1-3H3/b23-20-,29-28-
Instrument: AB Sciex TripleTOF 5600+ system (Q-TOF) equipped with a DuoSpray ion source
Instrument type: LC-ESI-QTOF
Ms type: MS2
Ion mode: POSITIVE
Collision energy: 45V
Column name: Acquity UPLC Peptide BEH C18 column (50*2.1 mm; 1.7 um; 130A)(Waters Co.,Milford, MA, USA)
Retention time: 15.62138
Precursor type: [M+NH4]+
Precursor m/z: 932.8592
Intensity: 516
m/z	relative intensity
81.065	13
83.085	20
85.098	13
97.099	16
186.995	23
226.986	33
228.99	10
239.237	40
247.246	30
265.251	92
268.994	44
286.991	10
292.959	6
293.285	13
303.306	20
313.271	16
321.315	67
321.33	13
339.285	7
349.322	6
367.323	6
374.944	6
377.349	6
384.984	7
395.351	13
549.485	40
575.504	41
577.494	210
577.515	951
577.535	259
603.508	30
603.517	44
603.525	51
603.536	55
603.544	65
603.557	27
605.513	27
605.522	57
605.531	55
605.551	256
607.565	57
608.581	40
631.548	33
631.566	144
633.549	103
633.56	375
633.572	712
633.586	394
633.595	290
633.606	156
659.57	212
659.594	999
659.617	252
660.597	28
661.613	40
687.635	10
700.82	6
760.977	10
872.824	6
897.824	10
907.764	13
907.892	16
915.831	34
932.846	169
932.879	177
932.909	33
932.918	20
933.832	13
933.851	16
933.892	13
