Mass spectrum: AC 16:2; LC-ESI-QTOF; MS2
Name: AC 16:2
Class:  AcylCarnitine
Formula: C23H42NO4
Exact mass: 396.592
SMILES: CCCCCCCC\C=C/C\C=C\CCC(=O)OC(CC(O)=O)C[N+](C)(C)C
InChI: InChI=1S/C23H41NO4/c1-5-6-7-8-9-10-11-12-13-14-15-16-17-18-23(27)28-21(19-22(25)26)20-24(2,3)4/h12-13,15-16,21H,5-11,14,17-20H2,1-4H3/p+1/b13-12-,16-15+
Instrument: AB Sciex TripleTOF 5600+ system (Q-TOF) equipped with a DuoSpray ion source
Instrument type: LC-ESI-QTOF
Ms type: MS2
Ion mode: POSITIVE
Collision energy: 45V
Column name: Acquity UPLC Peptide BEH C18 column (50*2.1 mm; 1.7 um; 130A)(Waters Co.,Milford, MA, USA)
Retention time: 5.083374
Precursor type: [M+H]+
Precursor m/z: 396.3102
Intensity: 1622
m/z	relative intensity
79.055	21
81.067	47
83.086	32
85.027	999
93.068	18
95.087	36
105.07	21
109.099	36
119.084	18
121.104	20
144.104	50
191.182	26
217.19	18
337.24	9
396.31	191
