Mass spectrum: TG 58:9; LC-ESI-QTOF; MS2
Name: TG 58:9
Class:  TAG
Formula: C61H100O6
Exact mass: 929.4649999999999
SMILES: CCCCCC\C=C/CCCCCCCCCC(=O)OCC(COC(=O)CC\C=C/C\C=C/C\C=C/C\C=C/C\C=C/C\C=C/CC)OC(=O)CCCCCCCC\C=C/C=C\CCCCC
InChI: InChI=1S/C61H100O6/c1-4-7-10-13-16-19-22-25-28-29-30-31-34-36-39-42-45-48-51-54-60(63)66-57-58(67-61(64)55-52-49-46-43-40-37-33-27-24-21-18-15-12-9-6-3)56-65-59(62)53-50-47-44-41-38-35-32-26-23-20-17-14-11-8-5-2/h7,10,16,18-21,23-25,27-28,30-31,36,39,45,48,58H,4-6,8-9,11-15,17,22,26,29,32-35,37-38,40-44,46-47,49-57H2,1-3H3/b10-7-,19-16-,21-18-,23-20-,27-24-,28-25-,31-30-,39-36-,48-45-
Instrument: AB Sciex TripleTOF 5600+ system (Q-TOF) equipped with a DuoSpray ion source
Instrument type: LC-ESI-QTOF
Ms type: MS2
Ion mode: POSITIVE
Collision energy: 45V
Column name: Acquity UPLC Peptide BEH C18 column (50*2.1 mm; 1.7 um; 130A)(Waters Co.,Milford, MA, USA)
Retention time: 14.17164
Precursor type: [M+NH4]+
Precursor m/z: 946.7826
Intensity: 180442
m/z	relative intensity
71.049	1
71.085	2
77.038	5
79.054	17
81.07	46
83.048	1
83.085	17
85.064	2
85.1	2
91.053	21
93.069	24
95.049	1
95.085	47
97.064	3
97.1	13
99.08	2
105.069	13
107.047	0
107.085	17
109.065	1
109.101	29
111.08	3
111.116	6
113.095	2
115.054	2
117.069	9
119.085	16
121.069	0
121.1	29
123.08	1
123.116	19
125.097	1
125.133	1
127.111	1
128.061	1
129.068	6
131.085	16
133.065	0
133.1	17
135.075	0
135.084	1
135.116	25
137.096	1
137.132	8
139.111	2
141.069	3
141.124	0
142.076	0
143.085	7
145.1	11
147.08	2
147.116	13
149.095	1
149.103	1
149.132	15
151.112	1
151.147	5
153.067	1
153.127	5
155.084	5
157.102	11
159.082	1
159.116	16
161.096	3
161.131	21
163.113	2
163.147	20
165.07	2
165.127	1
165.163	5
166.079	0
167.085	3
167.144	2
168.089	0
169.101	15
171.116	21
173.095	1
173.132	18
175.112	3
175.148	21
177.125	2
177.164	8
179.085	1
179.14	0
179.18	1
181.101	9
181.156	1
183.116	14
185.099	2
185.132	18
187.109	4
187.122	1
187.148	11
189.126	4
189.163	9
191.144	1
191.177	3
193.101	0
193.157	2
195.117	9
195.176	0
197.094	0
197.131	13
199.113	3
199.148	16
201.125	4
201.163	22
203.144	4
203.179	8
205.193	2
207.116	1
207.175	1
209.132	13
211.147	19
212.156	0
213.128	2
213.163	20
214.171	0
215.142	3
215.178	18
217.159	1
217.197	1
219.121	0
219.216	0
221.132	3
221.192	1
223.147	16
225.125	1
225.164	12
227.14	3
227.179	31
229.159	7
229.193	3
231.175	2
235.144	0
235.154	0
237.164	8
239.143	1
239.18	5
239.239	2
241.158	10
241.192	4
243.175	2
243.209	1
245.188	0
245.199	0
245.226	17
247.242	16
249.157	1
249.174	0
250.17	1
251.179	10
253.159	0
253.193	3
255.174	3
255.212	1
257.187	1
257.23	0
259.173	0
261.22	2
263.173	0
263.199	1
263.236	54
264.191	0
265.195	6
265.252	62
267.174	1
267.21	9
269.189	2
269.225	17
277.189	0
279.212	1
279.239	0
281.188	1
281.225	0
282.284	0
283.172	0
283.206	3
283.243	9
285.177	0
289.204	0
291.21	4
293.226	78
295.237	1
295.25	1
301.252	1
303.115	0
307.212	0
309.219	9
311.237	116
312.24	0
313.252	1
313.275	3
317.242	0
317.256	0
319.251	2
319.264	11
321.216	0
321.277	2
323.288	0
327.225	0
327.237	0
335.254	2
335.275	0
337.273	69
339.29	86
340.299	0
349.254	0
365.263	0
367.245	2
367.262	5
367.282	3
383.256	3
385.274	4
391.278	3
391.294	3
393.29	5
393.313	2
403.293	0
407.311	0
421.346	0
433.333	0
435.343	0
445.348	0
459.344	0
463.343	0
471.351	1
473.355	1
473.379	0
475.388	0
477.398	0
483.352	0
485.363	2
487.376	1
489.39	0
497.368	0
499.382	1
513.38	0
525.39	0
527.401	0
527.421	0
527.463	1
527.481	2
529.429	0
531.451	0
537.388	0
539.404	1
541.432	0
545.489	1
551.418	0
553.438	0
555.437	1
555.458	2
555.486	0
557.469	1
557.491	0
563.406	0
565.423	1
567.443	0
573.465	10
573.505	0
575.503	33
576.504	1
579.441	0
581.45	0
587.5	0
591.451	0
591.481	0
597.478	0
599.496	8
599.516	5
599.619	2
599.639	4
599.657	2
601.347	0
601.408	0
601.516	999
602.277	0
602.527	46
603.549	3
615.543	0
619.466	0
619.521	0
621.499	0
623.502	14
623.532	1
625.506	0
627.532	0
645.461	0
645.485	0
645.51	0
647.502	520
648.49	2
648.518	4
649.517	396
650.507	3
650.538	4
663.498	2
665.518	4
667.508	1
667.534	2
673.507	0
675.543	0
679.559	0
695.57	0
709.598	0
711.626	0
735.593	0
737.618	0
739.576	0
749.623	0
753.604	0
753.668	0
761.596	0
763.63	0
765.609	0
765.66	0
767.594	0
767.643	0
775.628	0
779.608	1
781.637	0
789.653	0
791.687	0
793.607	0
793.666	0
801.661	0
803.648	0
805.64	0
807.626	0
807.68	0
817.662	0
819.624	0
819.655	1
821.631	0
821.674	0
831.674	0
833.661	0
833.685	0
845.629	0
845.647	0
845.704	0
847.676	0
849.699	0
859.674	1
859.723	0
861.696	0
863.685	0
864.675	0
864.714	1
864.739	0
873.667	0
873.699	0
885.738	0
887.705	0
887.744	0
893.731	0
901.762	0
903.726	0
911.698	0
911.749	12
911.821	0
912.756	0
920.773	0
926.83	0
929.678	0
929.757	97
929.839	0
930.738	1
930.763	0
930.784	1
943.761	0
943.807	0
943.86	0
946.545	0
946.784	171
946.856	1
947.781	9
947.819	3
