Mass spectrum: TG 56:5; LC-ESI-QTOF; MS2
Name: TG 56:5
Class:  TAG
Formula: C59H104O6
Exact mass: 909.475
SMILES: CCCCCC\C=C/CCCCCCCCCC(=O)OCC(COC(=O)CCCCCCCCC\C=C/C\C=C/CCCCC)OC(=O)CCCCCCCC\C=C/C=C\CCCCC
InChI: InChI=1S/C59H104O6/c1-4-7-10-13-16-19-22-25-28-29-32-34-37-40-43-46-49-52-58(61)64-55-56(65-59(62)53-50-47-44-41-38-35-31-27-24-21-18-15-12-9-6-3)54-63-57(60)51-48-45-42-39-36-33-30-26-23-20-17-14-11-8-5-2/h16,18-21,23-25,27-28,56H,4-15,17,22,26,29-55H2,1-3H3/b19-16-,21-18-,23-20-,27-24-,28-25-
Instrument: AB Sciex TripleTOF 5600+ system (Q-TOF) equipped with a DuoSpray ion source
Instrument type: LC-ESI-QTOF
Ms type: MS2
Ion mode: POSITIVE
Collision energy: 45V
Column name: Acquity UPLC Peptide BEH C18 column (50*2.1 mm; 1.7 um; 130A)(Waters Co.,Milford, MA, USA)
Retention time: 14.60906
Precursor type: [M+NH4]+
Precursor m/z: 926.8212
Intensity: 12981
m/z	relative intensity
79.053	5
81.069	15
83.086	6
91.053	4
93.069	7
95.085	20
97.101	5
105.071	3
107.084	4
109.101	11
111.117	3
119.086	2
121.101	10
123.116	7
133.1	6
135.117	8
137.132	3
147.122	2
149.131	4
151.147	2
161.134	5
163.147	6
165.165	3
173.13	2
175.147	8
177.163	6
179.18	2
189.164	6
191.179	3
203.177	4
205.196	2
243.208	4
245.213	3
245.227	12
247.242	7
261.21	3
261.222	7
261.234	3
263.236	41
265.253	10
271.248	3
275.274	6
279.235	1
287.238	3
288.238	1
289.239	1
289.253	6
291.273	4
293.275	4
293.29	16
297.252	2
301.251	2
313.266	3
314.256	2
315.258	1
317.248	2
319.262	12
321.277	2
335.256	1
337.273	22
337.297	2
338.271	1
339.289	13
341.305	3
345.283	3
347.3	2
349.31	1
365.312	2
367.319	13
415.373	1
417.355	1
525.451	2
525.469	3
537.508	1
543.472	2
545.456	2
553.497	3
555.51	5
573.49	2
573.525	2
575.492	4
575.51	4
575.527	2
577.495	1
577.515	13
578.526	19
578.553	3
579.516	6
579.538	4
581.522	3
589.504	28
589.527	30
591.521	9
591.546	14
599.502	542
600.503	5
600.526	3
601.499	41
601.522	98
603.499	4
603.535	73
604.522	3
604.543	5
604.566	4
605.523	6
605.545	12
615.533	5
617.523	2
617.541	2
617.572	2
624.509	3
625.499	5
625.52	6
625.542	4
626.556	1
627.534	214
627.592	4
628.541	5
629.549	999
630.524	3
630.561	14
631.562	49
643.549	2
645.548	2
652.535	3
653.552	6
655.55	2
671.595	0
673.543	1
687.54	0
699.555	0
701.563	0
701.614	0
783.635	0
797.665	2
811.672	1
811.733	1
825.699	2
839.715	0
843.735	0
844.745	1
871.772	1
888.712	1
888.773	2
888.805	1
888.833	1
891.753	4
891.786	14
891.831	1
905.752	1
909.715	2
909.789	165
910.75	0
910.803	2
926.815	224
927.808	3
927.838	1
