Mass spectrum: TG 46:1; LC-ESI-QTOF; MS2
Name: TG 46:1
Class:  TAG
Formula: C49H92O6
Exact mass: 777.269
SMILES: CCCCCCCCCCCCCC(=O)OCC(COC(=O)CCCCCCCCC\C=C/CCCCCC)OC(=O)CCCCCCCCCCCCC
InChI: InChI=1S/C49H92O6/c1-4-7-10-13-16-19-22-23-24-25-28-30-33-36-39-42-48(51)54-45-46(55-49(52)43-40-37-34-31-27-21-18-15-12-9-6-3)44-53-47(50)41-38-35-32-29-26-20-17-14-11-8-5-2/h19,22,46H,4-18,20-21,23-45H2,1-3H3/b22-19-
Instrument: AB Sciex TripleTOF 5600+ system (Q-TOF) equipped with a DuoSpray ion source
Instrument type: LC-ESI-QTOF
Ms type: MS2
Ion mode: POSITIVE
Collision energy: 45V
Column name: Acquity UPLC Peptide BEH C18 column (50*2.1 mm; 1.7 um; 130A)(Waters Co.,Milford, MA, USA)
Retention time: 14.10753
Precursor type: [M+NH4]+
Precursor m/z: 794.725
Intensity: 27890
m/z	relative intensity
71.086	22
79.055	5
81.071	31
83.086	20
85.061	1
85.102	18
93.07	4
95.087	45
97.102	23
99.082	1
99.117	2
99.124	2
107.088	4
109.103	33
111.119	12
113.137	2
121.101	12
123.119	20
125.133	3
127.15	1
135.119	15
137.134	9
139.149	1
149.134	5
151.148	3
151.16	1
153.134	2
163.148	2
163.157	1
165.166	2
177.165	2
183.171	4
183.181	5
191.183	3
193.198	3
209.188	3
209.202	2
211.207	52
219.211	11
221.23	3
228.23	2
237.222	30
237.235	8
239.239	50
247.244	4
256.262	1
257.241	1
265.254	17
275.253	0
283.23	1
285.226	2
285.238	2
285.249	9
293.239	1
293.259	1
295.267	0
297.283	1
311.263	5
313.274	15
313.306	0
321.289	0
339.279	0
339.295	1
417.181	0
447.428	0
467.421	0
493.433	15
495.39	1
495.446	239
519.809	1
519.838	1
521.46	999
521.806	1
521.847	2
522.469	1
523.477	627
524.472	0
524.541	0
547.765	1
549.492	911
550.476	0
550.511	0
551.503	113
551.528	17
577.523	128
579.554	0
605.514	0
605.544	4
605.566	4
605.586	1
759.692	1
777.669	0
777.711	3
777.755	0
792.251	0
794.349	0
794.711	31
794.737	29
794.759	21
794.838	0
