Mass spectrum: PG 36:4; LC-ESI-QTOF; MS2
Name: PG 36:4
Class:  PG
Formula: C42H75O10P
Exact mass: 771.028
SMILES: CCCCCCCCCCCCCCCC(=O)OCC(COP(O)(=O)OCC(O)CO)OC(=O)CCCCCC\C=C/C\C=C/C\C=C/C\C=C/CC
InChI: InChI=1S/C42H75O10P/c1-3-5-7-9-11-13-15-17-18-19-20-22-24-26-28-30-32-34-42(46)52-40(38-51-53(47,48)50-36-39(44)35-43)37-49-41(45)33-31-29-27-25-23-21-16-14-12-10-8-6-4-2/h5,7,11,13,17-18,20,22,39-40,43-44H,3-4,6,8-10,12,14-16,19,21,23-38H2,1-2H3,(H,47,48)/b7-5-,13-11-,18-17-,22-20-
Instrument: AB Sciex TripleTOF 5600+ system (Q-TOF) equipped with a DuoSpray ion source
Instrument type: LC-ESI-QTOF
Ms type: MS2
Ion mode: POSITIVE
Collision energy: 45V
Column name: Acquity UPLC Peptide BEH C18 column (50*2.1 mm; 1.7 um; 130A)(Waters Co.,Milford, MA, USA)
Retention time: 8.337547
Precursor type: [M+NH4]+
Precursor m/z: 788.546
Intensity: 420
m/z	relative intensity
109.097	25
117.073	25
123.117	25
128.952	25
133.098	25
171.119	37
175.146	28
184.071	25
195.003	114
195.012	50
203.18	54
269.225	113
313.274	203
313.287	139
489.241	25
513.257	25
575.492	229
575.508	114
575.531	62
597.493	62
599.473	167
599.486	462
599.505	999
769.465	62
769.493	138
