Mass spectrum: BMP 38:6; LC-ESI-QTOF; MS2
Name: BMP 38:6
Class:  BMP
Formula: C44H75O10P
Exact mass: 795.05
SMILES: CCCCCCCCCCCCCCCC(=O)OC(CO)COP(O)(=O)OCC(CO)OC(=O)CC\C=C/C\C=C/C\C=C/C\C=C/C\C=C/C\C=C/CC
InChI: InChI=1S/C44H75O10P/c1-3-5-7-9-11-13-15-17-18-19-20-21-22-24-26-28-30-32-34-36-44(48)54-42(38-46)40-52-55(49,50)51-39-41(37-45)53-43(47)35-33-31-29-27-25-23-16-14-12-10-8-6-4-2/h5,7,11,13,17-18,20-21,24,26,30,32,41-42,45-46H,3-4,6,8-10,12,14-16,19,22-23,25,27-29,31,33-40H2,1-2H3,(H,49,50)/b7-5-,13-11-,18-17-,21-20-,26-24-,32-30-
Instrument: AB Sciex TripleTOF 5600+ system (Q-TOF) equipped with a DuoSpray ion source
Instrument type: LC-ESI-QTOF
Ms type: MS2
Ion mode: POSITIVE
Collision energy: 45V
Column name: Acquity UPLC Peptide BEH C18 column (50*2.1 mm; 1.7 um; 130A)(Waters Co.,Milford, MA, USA)
Retention time: 8.109655
Precursor type: [M+NH4]+
Precursor m/z: 812.5433
Intensity: 4659
m/z	relative intensity
79.056	11
91.056	13
93.069	11
105.07	8
107.086	7
117.074	6
119.084	11
131.084	9
133.102	11
143.083	6
147.119	7
159.12	8
161.133	6
169.098	5
171.115	14
173.134	13
175.15	7
185.135	7
209.133	7
209.192	6
211.146	8
227.179	5
253.256	6
269.226	9
283.228	10
293.202	3
293.229	12
311.236	9
313.271	299
313.303	4
327.299	9
367.272	5
384.069	7
385.209	3
385.275	999
403.278	3
449.272	14
496.349	2
533.588	2
535.47	339
535.618	1
623.507	29
671.452	2
759.476	11
759.503	13
759.532	3
777.519	3
795.526	3
