Mass spectrum: TG 55:8; LC-ESI-QTOF; MS2
Name: TG 55:8
Class:  TAG
Formula: C58H96O6
Exact mass: 889.4
SMILES: CCCCCCCCC\C=C/CCCCCC(=O)OCC(COC(=O)CCC\C=C/C\C=C/C\C=C/C\C=C/C\C=C/CC)OC(=O)CCCCCCCC\C=C/C=C\CCCCC
InChI: InChI=1S/C58H96O6/c1-4-7-10-13-16-19-22-25-28-29-31-33-36-39-42-45-48-51-57(60)63-54-55(53-62-56(59)50-47-44-41-38-35-32-27-24-21-18-15-12-9-6-3)64-58(61)52-49-46-43-40-37-34-30-26-23-20-17-14-11-8-5-2/h7,10,16-17,19-20,23,25-26,28,31-33,35,39,42,55H,4-6,8-9,11-15,18,21-22,24,27,29-30,34,36-38,40-41,43-54H2,1-3H3/b10-7-,19-16-,20-17-,26-23-,28-25-,33-31-,35-32-,42-39-
Instrument: AB Sciex TripleTOF 5600+ system (Q-TOF) equipped with a DuoSpray ion source
Instrument type: LC-ESI-QTOF
Ms type: MS2
Ion mode: POSITIVE
Collision energy: 45V
Column name: Acquity UPLC Peptide BEH C18 column (50*2.1 mm; 1.7 um; 130A)(Waters Co.,Milford, MA, USA)
Retention time: 13.96675
Precursor type: [M+NH4]+
Precursor m/z: 906.7482
Intensity: 9319
m/z	relative intensity
79.054	26
80.048	34
81.068	40
83.082	13
91.053	33
93.068	21
95.083	44
105.07	16
107.086	16
109.1	25
117.066	14
119.085	16
121.102	25
123.117	14
131.084	22
133.1	18
135.114	16
137.129	13
145.098	14
147.116	13
149.131	16
159.115	22
161.13	23
163.15	18
171.113	17
173.128	29
175.148	32
177.162	12
183.114	26
185.13	34
187.145	44
189.165	17
197.132	26
199.146	26
201.161	80
211.149	23
213.165	16
225.165	15
245.226	18
251.233	35
253.197	18
263.23	21
263.241	33
265.254	14
267.2	38
267.211	55
271.208	12
275.188	5
275.209	9
281.225	7
285.217	74
285.233	15
293.222	7
299.254	6
311.244	16
313.249	7
313.281	11
319.26	15
323.254	8
325.271	123
327.287	7
335.253	10
337.273	115
339.282	16
339.302	6
341.241	5
351.286	5
359.258	5
391.282	7
559.465	23
561.462	28
561.486	139
573.461	22
573.497	84
575.489	16
576.505	15
583.463	12
585.493	26
587.5	999
588.5	45
589.477	14
589.515	13
599.488	20
599.506	39
601.514	224
601.547	18
607.463	67
607.488	44
609.484	290
611.493	36
611.513	19
621.452	39
621.472	163
621.495	141
623.485	12
623.507	16
633.477	23
635.495	14
647.496	26
649.514	12
709.589	2
791.668	7
819.663	3
822.098	3
823.66	11
823.686	30
823.719	5
824.679	972
825.111	2
825.682	15
825.721	7
847.679	2
849.724	2
850.718	5
868.694	15
868.724	14
871.716	25
885.674	65
885.695	33
885.717	73
885.769	9
889.696	28
889.723	73
889.742	34
889.781	12
906.678	8
906.714	74
906.753	330
907.734	5
