Mass spectrum: TG 54:7; LC-ESI-QTOF; MS2
Name: TG 54:7
Class:  TAG
Formula: C57H96O6
Exact mass: 877.389
SMILES: CCCCCCCCCCCCCCCC(=O)OCC(COC(=O)CCC\C=C/C\C=C/C\C=C/C\C=C/C\C=C/CC)OC(=O)CCCCCCCC\C=C/C=C\CCCCC
InChI: InChI=1S/C57H96O6/c1-4-7-10-13-16-19-22-25-27-28-30-32-35-38-41-44-47-50-56(59)62-53-54(52-61-55(58)49-46-43-40-37-34-31-24-21-18-15-12-9-6-3)63-57(60)51-48-45-42-39-36-33-29-26-23-20-17-14-11-8-5-2/h7,10,16-17,19-20,23,25-27,30,32,38,41,54H,4-6,8-9,11-15,18,21-22,24,28-29,31,33-37,39-40,42-53H2,1-3H3/b10-7-,19-16-,20-17-,26-23-,27-25-,32-30-,41-38-
Instrument: AB Sciex TripleTOF 5600+ system (Q-TOF) equipped with a DuoSpray ion source
Instrument type: LC-ESI-QTOF
Ms type: MS2
Ion mode: POSITIVE
Collision energy: 45V
Column name: Acquity UPLC Peptide BEH C18 column (50*2.1 mm; 1.7 um; 130A)(Waters Co.,Milford, MA, USA)
Retention time: 14.03894
Precursor type: [M+NH4]+
Precursor m/z: 894.7523
Intensity: 30237
m/z	relative intensity
71.085	6
77.039	3
79.053	10
81.069	27
83.084	10
85.064	2
85.1	6
91.053	15
93.068	12
95.085	30
97.063	3
97.1	8
99.08	1
99.117	1
105.069	8
107.085	10
109.101	18
111.081	1
111.115	2
115.054	2
117.07	9
119.085	14
121.101	14
123.08	2
123.116	15
125.099	1
125.133	1
129.069	6
131.086	17
133.101	12
135.081	2
135.117	11
137.095	1
137.132	6
141.071	2
143.084	6
145.101	13
147.117	9
149.093	2
149.131	6
151.113	1
151.147	3
153.128	1
155.079	1
155.089	1
157.1	8
159.116	18
161.097	2
161.132	15
163.112	2
163.149	5
165.127	1
165.16	1
167.141	1
169.102	8
171.116	16
173.093	1
173.132	19
175.109	3
175.148	20
177.13	1
177.163	2
183.118	9
185.132	21
187.113	2
187.149	19
189.126	3
189.164	7
191.145	1
195.115	2
197.132	13
199.147	16
201.129	4
201.163	75
203.141	5
203.179	3
205.158	1
209.13	1
211.149	13
213.164	4
215.135	2
215.146	3
215.183	2
217.16	1
217.195	1
221.228	2
223.146	1
225.163	10
225.178	1
227.184	1
229.162	1
237.165	1
239.179	7
239.236	30
241.193	3
243.173	1
243.212	6
245.226	10
255.21	1
256.26	1
257.187	4
257.224	8
257.244	2
261.218	2
263.237	30
265.195	3
265.245	1
267.21	79
269.227	2
283.204	5
283.242	1
285.22	87
286.23	1
287.231	1
293.229	1
301.258	0
311.24	1
311.256	2
313.211	0
313.274	115
314.277	1
317.241	1
319.263	6
319.281	1
321.279	0
323.238	1
335.243	0
335.263	1
337.274	111
338.269	0
339.282	3
339.297	1
339.309	1
341.247	6
357.233	1
357.247	1
359.261	4
367.284	4
367.308	1
391.28	2
391.298	2
393.306	1
459.356	1
461.366	0
463.379	0
477.391	1
499.375	1
501.395	1
501.472	1
505.434	1
513.394	1
515.412	1
523.449	1
527.423	1
529.435	3
541.419	1
547.449	4
547.468	2
549.484	20
561.488	1
565.435	1
565.479	0
569.466	1
573.487	6
573.711	4
575.501	999
576.487	24
576.505	70
577.499	2
577.518	5
595.448	2
595.476	5
595.497	1
597.487	218
598.483	4
598.502	3
613.482	2
615.491	1
615.52	1
621.486	279
622.472	2
622.498	5
623.51	10
637.489	1
639.497	1
639.518	1
697.566	0
727.59	0
737.582	0
741.605	0
753.615	0
755.607	0
765.591	0
767.603	0
769.636	0
781.614	0
781.664	0
793.652	1
795.653	1
807.615	0
807.671	1
821.669	0
859.687	1
859.721	7
859.779	0
860.715	0
874.968	0
877.662	0
877.727	91
878.704	0
878.73	2
878.782	0
891.973	0
894.659	0
894.752	186
895.713	0
895.75	7
895.785	3
