Mass spectrum: TG 51:3; LC-ESI-QTOF; MS2
Name: TG 51:3
Class:  TAG
Formula: C54H98O6
Exact mass: 843.372
SMILES: CCCCCCCCCCCCCCC(=O)OCC(COC(=O)CCCCCCCC\C=C/C=C\CCCCC)OC(=O)CCCCCCCCC\C=C/CCCCCC
InChI: InChI=1S/C54H98O6/c1-4-7-10-13-16-19-22-25-27-29-32-35-38-41-44-47-53(56)59-50-51(49-58-52(55)46-43-40-37-34-31-24-21-18-15-12-9-6-3)60-54(57)48-45-42-39-36-33-30-28-26-23-20-17-14-11-8-5-2/h16,19-20,22-23,25,51H,4-15,17-18,21,24,26-50H2,1-3H3/b19-16-,23-20-,25-22-
Instrument: AB Sciex TripleTOF 5600+ system (Q-TOF) equipped with a DuoSpray ion source
Instrument type: LC-ESI-QTOF
Ms type: MS2
Ion mode: POSITIVE
Collision energy: 45V
Column name: Acquity UPLC Peptide BEH C18 column (50*2.1 mm; 1.7 um; 130A)(Waters Co.,Milford, MA, USA)
Retention time: 14.35968
Precursor type: [M+NH4]+
Precursor m/z: 860.7696
Intensity: 3568
m/z	relative intensity
81.07	39
83.087	17
93.069	13
95.085	51
97.098	14
104.992	39
109.1	30
111.115	12
121.101	23
123.117	20
135.118	22
161.132	12
175.149	12
186.993	78
225.219	22
233.231	12
239.246	14
245.226	27
251.24	26
263.237	84
265.255	43
292.952	2
299.259	17
301.257	2
311.264	8
313.275	22
319.269	27
325.282	17
327.22	10
327.243	7
328.227	8
337.276	17
339.288	19
390.99	5
450.958	2
527.489	7
537.484	7
545.504	7
547.477	10
549.495	8
561.487	720
562.481	13
562.506	13
563.5	999
563.518	239
564.49	7
573.476	38
573.493	33
573.511	22
575.506	817
576.49	7
576.516	12
577.511	28
577.529	24
587.505	767
588.506	22
589.504	96
589.529	154
601.475	16
601.521	584
601.569	23
602.517	18
603.524	22
603.557	11
605.548	8
615.531	10
695.58	21
696.57	152
696.606	33
697.573	5
720.54	3
731.651	4
825.692	4
825.743	10
843.726	28
843.762	14
843.79	11
860.696	7
860.735	36
860.773	257
861.758	7
861.842	6
