Mass spectrum: TG 52:6; LC-ESI-QTOF; MS2
Name: TG 52:6
Class:  TAG
Formula: C55H94O6
Exact mass: 851.3509999999999
SMILES: CCCCCCCCCCCCCCCC(=O)OCC(COC(=O)CCCCCCC\C=C/C=C\C=C/C=C\CC)OC(=O)CCCCCCCC\C=C/C=C\CCCCC
InChI: InChI=1S/C55H94O6/c1-4-7-10-13-16-19-22-25-27-30-33-36-39-42-45-48-54(57)60-51-52(50-59-53(56)47-44-41-38-35-32-29-24-21-18-15-12-9-6-3)61-55(58)49-46-43-40-37-34-31-28-26-23-20-17-14-11-8-5-2/h7,10,13,16-17,19-20,22-23,25-27,52H,4-6,8-9,11-12,14-15,18,21,24,28-51H2,1-3H3/b10-7-,16-13-,20-17-,22-19-,26-23-,27-25-
Instrument: AB Sciex TripleTOF 5600+ system (Q-TOF) equipped with a DuoSpray ion source
Instrument type: LC-ESI-QTOF
Ms type: MS2
Ion mode: POSITIVE
Collision energy: 45V
Column name: Acquity UPLC Peptide BEH C18 column (50*2.1 mm; 1.7 um; 130A)(Waters Co.,Milford, MA, USA)
Retention time: 13.96729
Precursor type: [M+NH4]+
Precursor m/z: 868.738
Intensity: 6207
m/z	relative intensity
79.055	6
81.069	27
83.085	15
85.1	8
91.053	13
93.068	12
95.085	35
97.103	9
105.068	8
107.084	6
109.101	12
111.117	7
117.069	11
119.083	10
119.092	5
121.099	15
123.115	12
129.07	9
131.084	15
133.102	7
135.115	14
145.101	10
149.129	7
157.101	9
159.117	18
161.13	8
171.116	13
173.133	23
175.149	7
183.115	10
185.132	16
187.148	18
189.164	6
197.129	12
199.15	11
201.126	5
201.163	72
203.139	6
211.147	9
211.205	5
213.164	7
219.21	13
225.16	11
237.221	35
239.236	26
241.197	7
243.209	6
257.224	6
267.21	82
283.209	2
285.22	97
285.243	12
285.257	3
293.25	1
295.25	1
309.242	1
311.256	99
313.271	119
314.274	2
323.238	1
337.271	3
339.288	18
341.243	5
341.257	3
357.241	2
359.256	3
365.265	5
367.279	3
435.349	1
473.367	2
475.373	2
503.407	3
521.433	3
523.455	3
547.445	2
547.468	5
547.487	3
549.429	2
549.488	999
550.481	9
550.511	8
567.426	3
569.442	11
569.461	17
571.473	9
573.465	2
573.492	5
575.494	11
575.513	14
575.539	2
577.513	4
593.45	4
595.432	8
595.468	220
596.473	6
597.46	31
597.487	107
597.504	49
598.487	7
599.487	1
599.508	3
601.524	2
603.534	4
613.47	4
615.506	2
621.476	4
623.474	4
623.502	17
623.524	10
625.52	2
726.926	1
767.642	1
833.709	9
849.637	4
849.679	87
849.707	98
849.748	12
850.658	1
850.69	2
851.654	2
851.7	33
851.727	28
851.788	1
868.711	45
868.739	103
868.767	35
869.72	3
869.765	2
