Mass spectrum: TG 56:7; LC-ESI-QTOF; MS2
Name: TG 56:7
Class:  TAG
Formula: C59H100O6
Exact mass: 905.443
SMILES: CCCCCCCCCCCCCCCC(=O)OCC(COC(=O)CC\C=C/C\C=C/C\C=C/C\C=C/C\C=C/C\C=C/CC)OC(=O)CCCCCCCCC\C=C/CCCCCC
InChI: InChI=1S/C59H100O6/c1-4-7-10-13-16-19-22-25-27-28-29-30-32-34-37-40-43-46-49-52-58(61)64-55-56(54-63-57(60)51-48-45-42-39-36-33-24-21-18-15-12-9-6-3)65-59(62)53-50-47-44-41-38-35-31-26-23-20-17-14-11-8-5-2/h7,10,16,19-20,23,25,27,29-30,34,37,43,46,56H,4-6,8-9,11-15,17-18,21-22,24,26,28,31-33,35-36,38-42,44-45,47-55H2,1-3H3/b10-7-,19-16-,23-20-,27-25-,30-29-,37-34-,46-43-
Instrument: AB Sciex TripleTOF 5600+ system (Q-TOF) equipped with a DuoSpray ion source
Instrument type: LC-ESI-QTOF
Ms type: MS2
Ion mode: POSITIVE
Collision energy: 45V
Column name: Acquity UPLC Peptide BEH C18 column (50*2.1 mm; 1.7 um; 130A)(Waters Co.,Milford, MA, USA)
Retention time: 14.38971
Precursor type: [M+NH4]+
Precursor m/z: 922.7827
Intensity: 114512
m/z	relative intensity
71.049	1
71.085	10
77.037	3
79.054	10
81.069	25
83.047	0
83.085	19
85.065	1
85.1	10
91.053	15
93.07	13
95.085	37
97.061	1
97.101	13
99.078	1
99.116	2
105.069	10
107.05	0
107.085	10
109.066	0
109.1	26
111.079	2
111.117	8
113.096	0
113.131	1
115.054	1
117.069	10
119.085	11
121.101	21
123.116	12
125.097	1
125.131	2
127.111	0
127.148	0
128.06	1
129.069	5
131.085	14
133.1	8
135.079	2
135.116	17
137.097	0
137.131	5
139.108	1
139.146	0
141.07	3
141.164	0
143.084	7
145.1	10
147.079	2
147.116	7
149.095	3
149.132	12
151.113	0
151.149	4
152.061	0
153.127	2
154.076	0
155.084	4
157.101	9
159.076	1
159.086	0
159.116	16
161.096	2
161.132	12
163.108	1
163.118	0
163.147	7
165.067	2
165.162	4
166.075	0
167.084	4
167.143	1
169.101	12
171.116	20
173.095	1
173.132	15
175.111	3
175.148	12
177.128	1
177.163	3
179.179	1
181.101	8
183.116	11
185.095	1
185.131	17
187.111	5
187.147	9
189.127	6
189.162	3
191.144	1
191.18	2
195.116	8
197.131	11
199.11	2
199.12	1
199.147	14
201.127	6
201.163	21
203.141	4
203.179	5
205.189	0
205.201	0
207.116	1
209.132	12
211.148	19
212.157	0
213.128	2
213.163	19
214.172	0
215.144	4
215.179	15
217.159	1
219.212	0
221.134	1
221.228	4
223.149	16
225.129	0
225.165	10
227.142	5
227.179	30
229.157	9
229.193	2
231.177	1
235.146	0
237.164	8
237.224	0
239.14	0
239.178	4
239.236	43
241.158	10
241.194	2
243.175	2
243.205	0
245.19	1
247.162	0
247.242	17
249.162	1
251.181	7
253.193	2
255.169	1
255.18	2
255.211	0
256.267	2
257.191	0
257.246	1
261.169	0
263.183	0
263.242	0
265.197	4
265.213	0
265.252	54
267.168	0
267.197	1
267.209	6
269.192	1
269.224	18
271.168	0
273.186	0
277.182	0
277.205	0
279.214	0
281.189	0
281.229	0
282.275	0
283.206	3
283.242	10
285.185	0
285.227	0
285.254	0
287.234	0
289.198	0
291.209	1
291.219	1
293.226	83
294.222	0
294.239	0
295.203	0
295.243	1
297.181	0
297.278	0
309.22	3
310.271	0
311.237	116
312.241	1
313.274	69
314.279	0
321.217	0
321.259	0
321.281	1
323.294	0
325.212	0
327.235	0
331.239	0
337.264	1
337.281	0
339.234	0
339.29	64
340.293	0
341.271	0
341.297	1
341.309	2
349.248	0
351.23	1
355.294	0
365.275	0
367.261	8
367.282	6
367.3	1
373.336	0
381.292	0
383.26	3
385.274	2
393.299	5
397.346	0
407.314	0
409.335	0
421.341	0
423.333	0
425.364	0
433.334	0
435.334	0
435.359	0
447.346	0
449.358	0
451.358	0
459.332	0
459.349	0
461.365	0
463.383	0
465.401	0
473.355	0
475.38	0
485.376	0
487.381	0
489.403	0
499.376	0
501.394	1
503.493	0
513.39	1
513.44	0
515.405	0
527.412	0
529.419	0
531.451	2
539.402	0
541.437	0
549.459	1
551.49	1
551.513	1
553.422	0
557.465	2
557.487	1
573.472	2
573.495	1
575.462	1
575.493	9
575.69	1
575.707	1
575.728	3
576.495	0
577.357	0
577.395	0
577.516	999
578.522	36
579.443	0
579.532	0
593.487	0
595.486	0
599.505	0
601.497	0
601.528	1
602.508	0
603.506	0
603.514	0
603.529	3
603.549	1
605.496	0
621.457	1
621.486	7
621.508	3
621.535	1
621.561	0
623.502	369
624.479	1
624.512	6
625.532	0
627.534	0
639.481	1
639.506	1
641.509	2
645.48	8
647.478	0
647.511	0
649.516	385
650.517	9
650.547	1
651.507	1
651.544	4
665.508	0
667.518	1
667.544	1
677.536	0
677.562	0
677.582	0
687.607	0
781.638	0
783.633	0
791.652	0
795.618	0
795.656	0
807.672	0
809.654	0
809.689	0
821.645	0
821.685	0
823.676	0
823.705	0
835.682	1
837.693	0
839.703	0
840.701	1
840.734	0
849.687	0
863.718	0
877.763	0
887.734	7
887.767	2
887.814	0
888.749	0
901.724	36
901.771	2
902.728	0
902.935	0
905.678	0
905.756	76
905.836	0
906.742	1
906.771	1
906.797	0
919.881	0
919.916	0
922.562	0
922.782	152
923.749	1
923.774	4
923.809	4
923.856	0
