Mass spectrum: TG 51:3; LC-ESI-QTOF; MS2
Name: TG 51:3
Class:  TAG
Formula: C54H98O6
Exact mass: 843.372
SMILES: CCCCCCCCCCCCCCC(=O)OCC(COC(=O)CCCCCCCC\C=C/C=C\CCCCC)OC(=O)CCCCCCCCC\C=C/CCCCCC
InChI: InChI=1S/C54H98O6/c1-4-7-10-13-16-19-22-25-27-29-32-35-38-41-44-47-53(56)59-50-51(49-58-52(55)46-43-40-37-34-31-24-21-18-15-12-9-6-3)60-54(57)48-45-42-39-36-33-30-28-26-23-20-17-14-11-8-5-2/h16,19-20,22-23,25,51H,4-15,17-18,21,24,26-50H2,1-3H3/b19-16-,23-20-,25-22-
Instrument: AB Sciex TripleTOF 5600+ system (Q-TOF) equipped with a DuoSpray ion source
Instrument type: LC-ESI-QTOF
Ms type: MS2
Ion mode: POSITIVE
Collision energy: 45V
Column name: Acquity UPLC Peptide BEH C18 column (50*2.1 mm; 1.7 um; 130A)(Waters Co.,Milford, MA, USA)
Retention time: 14.35282
Precursor type: [M+NH4]+
Precursor m/z: 860.7673
Intensity: 20230
m/z	relative intensity
71.085	11
79.056	10
81.069	35
83.085	16
85.101	9
93.07	8
95.085	46
97.101	14
99.117	3
105.071	4
107.086	8
109.1	27
111.116	11
119.084	3
121.1	16
123.116	16
133.102	6
135.117	22
137.133	12
147.115	4
149.131	6
151.146	4
161.131	7
163.146	9
165.163	4
175.147	10
177.162	4
189.164	4
205.197	3
219.213	4
225.22	17
233.225	11
237.22	7
239.231	10
239.242	13
245.227	28
247.241	9
251.237	20
263.239	60
265.253	26
277.254	1
279.269	1
283.242	1
285.244	1
299.257	13
299.269	4
301.251	1
311.255	3
313.257	2
313.278	21
314.283	1
319.254	5
319.267	12
321.279	1
325.261	3
325.274	5
327.279	2
327.295	2
335.257	2
337.273	18
339.288	12
339.309	1
341.305	2
451.383	1
465.39	1
513.468	1
527.484	1
531.48	1
533.453	2
537.485	20
537.511	3
538.496	14
538.523	4
545.495	3
547.47	34
547.507	4
548.465	1
549.486	8
549.504	6
551.505	5
559.455	3
559.498	3
561.487	572
561.753	2
562.463	7
562.487	34
562.506	18
563.502	999
564.477	1
564.498	2
564.521	7
565.503	4
565.52	5
573.489	122
573.551	1
575.504	624
575.564	2
576.51	75
576.546	2
577.502	18
577.523	15
587.504	627
587.672	1
588.482	2
589.52	209
590.521	7
599.627	3
601.519	507
602.531	4
603.534	15
603.557	1
605.544	7
605.567	4
615.504	3
615.533	21
615.553	11
615.581	1
617.536	3
689.583	0
745.676	1
801.696	1
825.697	1
825.728	5
825.746	3
825.779	0
835.767	3
843.71	10
843.739	39
843.77	15
843.823	1
858.07	1
860.519	0
860.771	180
861.768	1
