Mass spectrum: TG 58:3; LC-ESI-QTOF; MS2
Name: TG 58:3
Class:  TAG
Formula: C61H112O6
Exact mass: 941.5609999999999
SMILES: CCCCCCCCCCCCCCCCCC(=O)OCC(COC(=O)CCCCCCCCC\C=C/CCCCCCCCCC)OC(=O)CCCCCCCC\C=C/C=C\CCCCC
InChI: InChI=1S/C61H112O6/c1-4-7-10-13-16-19-22-25-28-29-30-31-34-36-39-42-45-48-51-54-60(63)66-57-58(67-61(64)55-52-49-46-43-40-37-33-27-24-21-18-15-12-9-6-3)56-65-59(62)53-50-47-44-41-38-35-32-26-23-20-17-14-11-8-5-2/h18,21,24,27,29-30,58H,4-17,19-20,22-23,25-26,28,31-57H2,1-3H3/b21-18-,27-24-,30-29-
Instrument: AB Sciex TripleTOF 5600+ system (Q-TOF) equipped with a DuoSpray ion source
Instrument type: LC-ESI-QTOF
Ms type: MS2
Ion mode: POSITIVE
Collision energy: 45V
Column name: Acquity UPLC Peptide BEH C18 column (50*2.1 mm; 1.7 um; 130A)(Waters Co.,Milford, MA, USA)
Retention time: 15.69406
Precursor type: [M+NH4]+
Precursor m/z: 958.8786
Intensity: 1777
m/z	relative intensity
81.067	28
97.099	22
111.112	26
121.104	15
123.114	11
135.119	16
186.998	23
247.248	26
263.236	34
265.25	57
268.999	41
292.964	7
293.29	22
303.303	16
321.277	20
321.319	30
327.082	7
331.342	7
339.288	37
349.347	20
367.319	33
395.348	15
407.309	7
575.494	238
575.513	96
575.521	42
577.516	33
601.508	26
601.532	50
603.513	117
603.521	283
603.539	738
605.552	27
629.549	61
631.564	781
631.585	148
632.567	23
657.568	84
657.582	35
657.593	42
657.603	30
657.611	23
659.577	283
659.59	999
659.604	605
659.613	335
661.575	23
661.586	30
661.597	50
661.613	169
661.629	49
661.638	49
685.577	19
685.599	115
685.615	53
685.625	61
685.633	38
687.61	30
687.639	69
923.854	13
941.833	49
941.856	23
941.869	15
941.882	15
958.774	8
958.844	69
958.86	224
958.897	233
959.895	26
