Mass spectrum: TG 46:1; LC-ESI-QTOF; MS2
Name: TG 46:1
Class:  TAG
Formula: C49H92O6
Exact mass: 777.269
SMILES: CCCCCCCCCCCCCCCC(=O)OC(COC(=O)CCCCCCCCCCCCC)COC(=O)CCCCC\C=C/CCCCCCCC
InChI: InChI=1S/C49H92O6/c1-4-7-10-13-16-19-22-24-27-30-33-36-39-42-48(51)54-45-46(44-53-47(50)41-38-35-32-29-26-21-18-15-12-9-6-3)55-49(52)43-40-37-34-31-28-25-23-20-17-14-11-8-5-2/h24,27,46H,4-23,25-26,28-45H2,1-3H3/b27-24-
Instrument: AB Sciex TripleTOF 5600+ system (Q-TOF) equipped with a DuoSpray ion source
Instrument type: LC-ESI-QTOF
Ms type: MS2
Ion mode: POSITIVE
Collision energy: 45V
Column name: Acquity UPLC Peptide BEH C18 column (50*2.1 mm; 1.7 um; 130A)(Waters Co.,Milford, MA, USA)
Retention time: 14.09823
Precursor type: [M+NH4]+
Precursor m/z: 794.7221
Intensity: 18654
m/z	relative intensity
71.085	18
79.054	4
81.069	30
83.084	20
85.101	21
93.069	5
95.085	44
95.098	3
97.1	16
99.117	5
109.101	21
111.117	8
121.101	13
123.117	17
125.132	3
135.112	7
135.122	9
137.132	5
137.142	3
149.134	4
151.15	3
163.152	3
165.161	4
183.173	11
191.182	2
193.2	5
209.191	4
211.207	47
219.208	9
219.223	4
221.222	3
228.234	3
237.222	37
239.236	46
247.24	7
256.267	3
257.209	3
265.256	18
283.23	0
285.23	3
285.246	7
293.248	3
295.254	0
311.263	8
313.277	13
313.299	3
339.294	2
458.5	0
467.405	1
493.422	16
493.461	3
495.441	185
496.45	2
519.841	4
521.458	999
521.522	2
521.825	1
522.979	1
523.475	572
523.533	2
524.467	1
547.786	2
549.489	854
551.505	111
577.521	167
605.528	2
605.555	4
605.585	3
759.694	0
777.694	5
794.713	48
794.746	32
