Mass spectrum: TG 53:2; LC-ESI-QTOF; MS2
Name: TG 53:2
Class:  TAG
Formula: C56H104O6
Exact mass: 873.442
SMILES: CCCCCCCCCCCCCCCC(=O)OCC(COC(=O)CCCCCCC\C=C/CCCCCCCCC)OC(=O)CCCCCCCCC\C=C/CCCCCC
InChI: InChI=1S/C56H104O6/c1-4-7-10-13-16-19-22-25-27-29-31-34-37-40-43-46-49-55(58)61-52-53(51-60-54(57)48-45-42-39-36-33-30-24-21-18-15-12-9-6-3)62-56(59)50-47-44-41-38-35-32-28-26-23-20-17-14-11-8-5-2/h20,23,27,29,53H,4-19,21-22,24-26,28,30-52H2,1-3H3/b23-20-,29-27-
Instrument: AB Sciex TripleTOF 5600+ system (Q-TOF) equipped with a DuoSpray ion source
Instrument type: LC-ESI-QTOF
Ms type: MS2
Ion mode: POSITIVE
Collision energy: 45V
Column name: Acquity UPLC Peptide BEH C18 column (50*2.1 mm; 1.7 um; 130A)(Waters Co.,Milford, MA, USA)
Retention time: 14.98807
Precursor type: [M+NH4]+
Precursor m/z: 890.8136
Intensity: 12926
m/z	relative intensity
71.086	4
79.055	2
81.07	12
83.085	13
85.101	6
93.071	3
95.085	26
97.101	10
99.117	1
107.085	2
109.101	14
111.081	1
111.117	6
121.1	8
123.118	5
125.13	2
135.116	10
137.131	4
149.133	7
151.149	3
153.127	2
163.147	4
165.163	4
175.146	2
177.161	2
205.193	1
233.226	1
237.22	1
239.238	15
245.227	4
247.244	13
251.239	2
253.25	8
253.266	2
261.252	1
261.265	2
263.235	12
263.275	1
265.253	51
267.266	3
279.265	10
279.282	2
281.286	1
293.283	1
313.265	2
313.278	5
319.265	1
321.276	2
325.276	1
327.287	6
335.298	1
337.274	2
339.285	10
339.308	1
341.31	4
353.298	3
353.323	0
355.318	2
547.475	3
549.477	3
549.505	2
561.503	2
563.503	32
565.513	2
575.5	149
575.53	14
576.505	2
577.517	328
578.524	4
579.529	0
589.518	168
589.688	2
590.509	1
591.533	999
592.513	2
592.54	7
593.526	22
593.55	141
593.571	38
594.56	1
601.671	1
603.534	463
604.537	6
604.562	1
605.548	104
605.598	1
606.557	1
615.619	1
617.552	480
618.523	1
618.559	3
619.563	37
631.567	21
645.574	4
733.642	0
855.736	1
855.782	1
855.809	1
869.75	0
873.74	1
873.777	6
873.802	5
873.831	3
890.736	10
890.815	166
890.864	8
890.907	1
891.75	1
891.809	2
891.835	2
