Mass spectrum: AC 20:2; LC-ESI-QTOF; MS2
Name: AC 20:2
Class:  AcylCarnitine
Formula: C27H50NO4
Exact mass: 452.69999999999993
SMILES: CCCCC\C=C/C\C=C/CCCCCCCCCC(=O)OC(CC(O)=O)C[N+](C)(C)C
InChI: InChI=1S/C27H49NO4/c1-5-6-7-8-9-10-11-12-13-14-15-16-17-18-19-20-21-22-27(31)32-25(23-26(29)30)24-28(2,3)4/h9-10,12-13,25H,5-8,11,14-24H2,1-4H3/p+1/b10-9-,13-12-
Instrument: AB Sciex TripleTOF 5600+ system (Q-TOF) equipped with a DuoSpray ion source
Instrument type: LC-ESI-QTOF
Ms type: MS2
Ion mode: POSITIVE
Collision energy: 45V
Column name: Acquity UPLC Peptide BEH C18 column (50*2.1 mm; 1.7 um; 130A)(Waters Co.,Milford, MA, USA)
Retention time: 6.381688
Precursor type: [M+H]+
Precursor m/z: 452.3753
Intensity: 1727
m/z	relative intensity
81.07	63
83.084	50
84.08	33
85.026	999
95.086	23
97.102	55
105.072	23
109.102	39
144.097	33
175.151	23
291.267	31
393.305	15
452.345	56
452.375	459
