Mass spectrum: TG 50:6; LC-ESI-QTOF; MS2
Name: TG 50:6
Class:  TAG
Formula: C53H90O6
Exact mass: 823.297
SMILES: CCCCCCCCCCCCCC(=O)OCC(COC(=O)CCCCCCCCC\C=C/C=C\C=C/CC)OC(=O)CCCCCCCCC\C=C/C=C\C=C/CC
InChI: InChI=1S/C53H90O6/c1-4-7-10-13-16-19-22-24-26-28-31-34-37-40-43-46-52(55)58-49-50(48-57-51(54)45-42-39-36-33-30-21-18-15-12-9-6-3)59-53(56)47-44-41-38-35-32-29-27-25-23-20-17-14-11-8-5-2/h7-8,10-11,13-14,16-17,19-20,22-23,50H,4-6,9,12,15,18,21,24-49H2,1-3H3/b10-7-,11-8-,16-13-,17-14-,22-19-,23-20-
Instrument: AB Sciex TripleTOF 5600+ system (Q-TOF) equipped with a DuoSpray ion source
Instrument type: LC-ESI-QTOF
Ms type: MS2
Ion mode: POSITIVE
Collision energy: 45V
Column name: Acquity UPLC Peptide BEH C18 column (50*2.1 mm; 1.7 um; 130A)(Waters Co.,Milford, MA, USA)
Retention time: 13.67128
Precursor type: [M+NH4]+
Precursor m/z: 840.7063
Intensity: 8793
m/z	relative intensity
79.054	36
81.07	57
83.082	21
85.1	25
91.054	56
93.07	28
95.084	120
97.101	25
105.068	20
107.085	20
109.101	57
119.086	22
121.101	49
123.115	28
131.087	22
133.1	44
135.118	30
147.116	40
149.132	27
159.116	20
161.129	25
163.148	23
171.115	28
173.133	35
175.148	33
189.163	28
201.168	23
203.181	25
213.164	47
215.18	36
231.176	62
233.19	68
237.22	51
239.239	30
243.208	22
245.222	30
257.208	33
261.224	33
263.236	76
265.247	22
267.213	22
269.223	23
283.228	12
285.212	22
285.239	32
285.265	9
287.237	11
289.229	9
293.247	8
309.248	9
311.258	88
313.267	75
313.282	48
315.23	7
317.249	20
319.248	15
319.269	17
335.259	17
337.271	134
339.276	12
339.294	17
353.319	22
391.284	9
467.389	9
491.4	68
491.42	51
493.403	78
493.424	174
493.448	30
495.415	22
495.437	72
495.458	30
517.407	69
517.423	151
519.434	258
519.455	90
521.449	358
541.394	14
541.413	54
541.431	80
541.457	17
543.437	519
543.458	165
545.427	53
545.45	216
545.473	75
547.453	41
547.471	168
549.461	28
549.49	28
551.5	160
567.44	410
569.44	173
569.464	232
571.46	72
571.501	15
573.487	999
575.5	941
579.533	17
595.472	115
597.464	14
597.496	31
599.495	89
599.521	30
601.503	153
601.531	100
603.515	25
603.544	20
623.513	20
625.526	14
755.668	6
757.629	6
758.615	25
758.637	38
758.663	11
773.673	11
790.698	19
790.73	7
805.664	17
805.718	7
821.63	7
823.638	24
823.658	46
823.692	119
823.732	19
840.652	38
840.682	160
840.719	178
840.751	14
