Mass spectrum: TG 54:6; LC-ESI-QTOF; MS2
Name: TG 54:6
Class:  TAG
Formula: C57H98O6
Exact mass: 879.405
SMILES: CCCCC\C=C/C=C\CCCCCCCCC(=O)OCC(COC(=O)CCCCCCCC\C=C/C=C\CCCCC)OC(=O)CCCCCCCC\C=C/C=C\CCCCC
InChI: InChI=1S/C57H98O6/c1-4-7-10-13-16-19-22-25-28-31-34-37-40-43-46-49-55(58)61-52-54(63-57(60)51-48-45-42-39-36-33-30-27-24-21-18-15-12-9-6-3)53-62-56(59)50-47-44-41-38-35-32-29-26-23-20-17-14-11-8-5-2/h16-27,54H,4-15,28-53H2,1-3H3/b19-16-,20-17-,21-18-,25-22-,26-23-,27-24-
Instrument: AB Sciex TripleTOF 5600+ system (Q-TOF) equipped with a DuoSpray ion source
Instrument type: LC-ESI-QTOF
Ms type: MS2
Ion mode: POSITIVE
Collision energy: 45V
Column name: Acquity UPLC Peptide BEH C18 column (50*2.1 mm; 1.7 um; 130A)(Waters Co.,Milford, MA, USA)
Retention time: 14.07625
Precursor type: [M+NH4]+
Precursor m/z: 896.7686
Intensity: 28137
m/z	relative intensity
77.038	1
79.054	5
81.07	23
83.084	5
91.054	3
93.07	7
95.086	22
97.065	1
97.101	3
99.08	1
105.07	4
107.084	3
109.1	10
111.078	1
111.117	2
113.096	1
119.084	4
121.102	7
123.116	10
125.096	0
127.112	1
131.089	1
133.102	5
135.117	8
137.132	5
139.112	0
145.101	1
147.117	6
149.13	5
151.148	3
153.129	2
159.116	1
161.132	9
163.148	9
165.165	2
171.119	0
173.133	3
175.148	12
177.163	3
179.144	1
179.178	1
181.162	0
187.148	1
189.165	5
191.181	1
193.16	2
199.148	0
201.163	0
203.182	2
207.178	1
233.234	0
235.171	0
243.213	6
245.226	19
247.243	1
259.205	1
261.221	17
263.238	60
264.239	0
265.251	3
273.223	0
275.232	0
275.246	0
277.216	0
287.236	1
289.252	1
299.231	0
301.251	1
303.267	0
305.243	0
313.272	0
317.238	1
317.25	3
317.283	0
319.264	13
333.241	0
335.259	2
337.273	38
339.287	5
345.281	0
359.325	0
387.361	0
391.279	0
403.356	0
417.372	0
427.372	0
461.37	0
473.356	0
475.369	0
487.37	0
489.386	0
491.414	0
501.397	1
503.391	0
503.417	0
505.428	0
507.453	1
507.478	0
513.4	0
515.405	0
515.43	0
517.408	0
523.45	2
523.473	0
525.447	3
525.47	9
526.482	0
529.413	0
529.447	0
531.435	0
533.452	0
541.432	0
541.465	0
543.477	9
545.436	0
547.48	0
548.465	0
549.481	1
550.491	0
551.499	1
559.477	0
563.476	0
571.484	0
573.455	0
573.493	3
574.478	0
575.5	4
575.528	0
581.485	1
581.512	0
585.497	1
587.493	0
587.523	0
597.488	78
597.6	0
597.635	1
597.653	1
598.499	2
599.366	2
599.502	999
599.972	0
600.504	37
601.518	89
602.515	0
602.536	1
603.531	1
603.56	0
611.486	0
613.469	0
613.513	1
615.491	2
615.516	1
617.487	0
617.515	5
617.543	0
623.482	0
623.511	0
625.502	1
625.523	1
625.552	0
627.525	1
639.535	0
655.538	0
657.521	0
671.5	0
671.531	0
681.582	0
685.557	0
695.585	0
697.527	0
697.566	0
699.56	0
709.621	0
711.563	0
713.567	0
725.558	0
725.619	0
737.631	0
739.57	0
739.605	0
741.606	0
753.59	0
753.627	0
753.659	0
755.629	0
757.645	0
767.588	0
767.618	1
767.647	1
767.68	0
769.658	0
781.614	0
781.646	1
781.668	0
781.687	0
781.725	0
787.711	0
795.653	1
795.69	0
809.668	0
823.662	0
861.706	5
861.741	9
861.782	1
862.73	0
862.759	0
876.963	0
879.669	0
879.746	150
880.723	2
880.762	3
880.798	0
891.656	1
891.694	1
891.737	0
892.668	0
893.963	0
896.77	110
896.797	25
897.709	0
897.747	1
897.768	2
897.802	1
897.844	0
