Mass spectrum: TG 62:14; LC-ESI-QTOF; MS2
Name: TG 62:14
Class:  TAG
Formula: C65H98O6
Exact mass: 975.4929999999999
SMILES: CCCCC\C=C/C=C\CCCCCCCCC(=O)OCC(COC(=O)CC\C=C/C\C=C/C\C=C/C\C=C/C\C=C/C\C=C/CC)OC(=O)CC\C=C/C\C=C/C\C=C/C\C=C/C\C=C/C\C=C/CC
InChI: InChI=1S/C65H98O6/c1-4-7-10-13-16-19-22-25-28-30-32-34-37-40-43-46-49-52-55-58-64(67)70-61-62(60-69-63(66)57-54-51-48-45-42-39-36-27-24-21-18-15-12-9-6-3)71-65(68)59-56-53-50-47-44-41-38-35-33-31-29-26-23-20-17-14-11-8-5-2/h7-8,10-11,16-21,24-29,32-35,40-41,43-44,49-50,52-53,62H,4-6,9,12-15,22-23,30-31,36-39,42,45-48,51,54-61H2,1-3H3/b10-7-,11-8-,19-16-,20-17-,21-18-,27-24-,28-25-,29-26-,34-32-,35-33-,43-40-,44-41-,52-49-,53-50-
Instrument: AB Sciex TripleTOF 5600+ system (Q-TOF) equipped with a DuoSpray ion source
Instrument type: LC-ESI-QTOF
Ms type: MS2
Ion mode: POSITIVE
Collision energy: 45V
Column name: Acquity UPLC Peptide BEH C18 column (50*2.1 mm; 1.7 um; 130A)(Waters Co.,Milford, MA, USA)
Retention time: 13.85063
Precursor type: [M+NH4]+
Precursor m/z: 992.7654
Intensity: 13665
m/z	relative intensity
77.038	3
79.054	11
81.07	15
91.053	18
93.069	10
95.085	12
105.068	8
107.085	8
109.099	7
117.069	8
119.083	9
121.099	7
123.117	6
129.07	6
131.084	12
133.102	11
143.085	3
145.1	8
147.116	7
149.131	4
155.086	4
157.102	6
159.115	10
161.131	11
163.147	6
169.098	9
171.116	15
173.133	11
175.147	10
181.102	5
183.116	11
185.132	10
187.11	4
187.147	7
189.164	3
195.116	3
197.133	7
199.147	12
201.128	5
201.163	16
209.133	9
211.149	11
213.161	12
215.179	8
223.147	10
225.162	8
227.181	12
229.157	3
237.163	5
239.183	3
241.159	3
245.223	4
251.179	4
263.237	17
265.193	3
267.21	5
269.226	8
277.198	1
283.243	4
285.181	1
289.18	1
291.212	3
293.225	30
295.247	2
297.213	1
309.215	4
309.229	4
311.236	41
313.252	2
319.263	4
337.273	58
339.286	1
365.259	1
367.247	2
367.271	4
383.253	2
383.271	2
385.276	18
391.267	2
391.288	5
483.357	1
485.348	1
485.377	0
487.383	0
497.372	1
511.375	1
521.464	1
523.381	1
525.394	1
527.409	1
531.357	0
539.412	1
551.416	0
553.428	1
555.459	1
563.404	0
567.429	1
573.448	1
573.473	2
577.42	0
581.465	1
603.451	1
621.462	1
645.464	2
645.487	6
645.509	1
647.502	999
648.446	0
648.499	13
648.524	4
649.513	13
665.518	1
673.533	0
693.33	0
695.498	98
696.487	1
696.507	2
711.486	1
713.504	1
745.629	0
755.554	0
771.531	0
811.588	0
825.596	0
827.614	0
853.614	0
865.629	1
905.659	1
909.656	1
909.688	4
909.724	2
909.794	1
957.715	2
957.753	2
975.706	5
975.742	43
975.812	1
976.73	1
989.645	1
992.689	1
992.767	322
993.74	2
993.784	4
