Mass spectrum: PG 36:3; LC-ESI-QTOF; MS2
Name: PG 36:3
Class:  PG
Formula: C42H77O10P
Exact mass: 773.044
SMILES: CCCCCCCC\C=C/CCCCCCCC(=O)OCC(COP(O)(=O)OCC(O)CO)OC(=O)CCCCCCC\C=C/C\C=C/CCCCC
InChI: InChI=1S/C42H77O10P/c1-3-5-7-9-11-13-15-17-19-21-23-25-27-29-31-33-41(45)49-37-40(38-51-53(47,48)50-36-39(44)35-43)52-42(46)34-32-30-28-26-24-22-20-18-16-14-12-10-8-6-4-2/h12,14,17-20,39-40,43-44H,3-11,13,15-16,21-38H2,1-2H3,(H,47,48)/b14-12-,19-17-,20-18-
Instrument: AB Sciex TripleTOF 5600+ system (Q-TOF) equipped with a DuoSpray ion source
Instrument type: LC-ESI-QTOF
Ms type: MS2
Ion mode: POSITIVE
Collision energy: 45V
Column name: Acquity UPLC Peptide BEH C18 column (50*2.1 mm; 1.7 um; 130A)(Waters Co.,Milford, MA, USA)
Retention time: 8.40939
Precursor type: [M+NH4]+
Precursor m/z: 790.5553
Intensity: 1837
m/z	relative intensity
81.07	24
135.115	19
245.22	19
265.256	24
313.279	14
337.27	53
339.284	24
367.275	9
504.426	9
563.471	26
563.479	49
563.492	64
563.508	173
601.493	236
601.504	349
601.521	999
601.538	298
605.536	53
623.494	64
623.51	24
623.531	34
678.494	9
678.523	9
732.515	19
752.506	9
790.545	25
