Mass spectrum: TG 47:2; LC-ESI-QTOF; MS2
Name: TG 47:2
Class:  TAG
Formula: C50H92O6
Exact mass: 789.28
SMILES: CCCCCCCCCCCCCCCC(=O)OC(COC(=O)CCCCCCCCCCCC)COC(=O)CCCCCCCC\C=C/C=C\CCCCC
InChI: InChI=1S/C50H92O6/c1-4-7-10-13-16-19-22-24-25-27-28-31-34-37-40-43-49(52)55-46-47(45-54-48(51)42-39-36-33-30-21-18-15-12-9-6-3)56-50(53)44-41-38-35-32-29-26-23-20-17-14-11-8-5-2/h16,19,22,24,47H,4-15,17-18,20-21,23,25-46H2,1-3H3/b19-16-,24-22-
Instrument: AB Sciex TripleTOF 5600+ system (Q-TOF) equipped with a DuoSpray ion source
Instrument type: LC-ESI-QTOF
Ms type: MS2
Ion mode: POSITIVE
Collision energy: 45V
Column name: Acquity UPLC Peptide BEH C18 column (50*2.1 mm; 1.7 um; 130A)(Waters Co.,Milford, MA, USA)
Retention time: 14.01796
Precursor type: [M+NH4]+
Precursor m/z: 806.7227
Intensity: 1488
m/z	relative intensity
81.07	84
83.086	41
85.101	35
95.087	107
97.101	29
109.1	77
111.12	29
121.105	29
123.116	41
135.119	47
137.135	29
184.072	166
203.18	47
211.208	47
219.212	41
221.19	35
225.225	63
237.223	59
239.237	41
245.23	47
263.237	77
269.0	41
285.245	35
292.968	29
299.255	17
308.997	11
311.255	19
313.275	167
316.925	13
319.261	11
392.963	11
434.984	11
473.46	11
474.918	11
507.438	221
507.462	95
509.457	660
519.422	47
519.442	71
521.446	197
521.47	108
521.49	35
533.447	449
533.473	340
535.458	441
535.476	690
547.472	999
549.5	215
551.501	347
551.525	126
561.467	157
561.49	751
563.501	89
563.526	41
575.475	53
575.503	241
575.526	77
577.512	35
589.521	77
603.543	59
771.71	11
788.606	19
806.582	63
806.698	65
806.718	53
806.749	83
