Mass spectrum: TG 49:2; LC-ESI-QTOF; MS2
Name: TG 49:2
Class:  TAG
Formula: C52H96O6
Exact mass: 817.3340000000001
SMILES: CCCCCCCCCCCCCC(=O)OCC(COC(=O)CCCCCCCCC\C=C/CCCCCC)OC(=O)CCCCC\C=C/CCCCCCCCC
InChI: InChI=1S/C52H96O6/c1-4-7-10-13-16-19-22-24-26-28-30-33-36-39-42-45-51(54)57-48-49(47-56-50(53)44-41-38-35-32-29-21-18-15-12-9-6-3)58-52(55)46-43-40-37-34-31-27-25-23-20-17-14-11-8-5-2/h19,22,27,31,49H,4-18,20-21,23-26,28-30,32-48H2,1-3H3/b22-19-,31-27-
Instrument: AB Sciex TripleTOF 5600+ system (Q-TOF) equipped with a DuoSpray ion source
Instrument type: LC-ESI-QTOF
Ms type: MS2
Ion mode: POSITIVE
Collision energy: 45V
Column name: Acquity UPLC Peptide BEH C18 column (50*2.1 mm; 1.7 um; 130A)(Waters Co.,Milford, MA, USA)
Retention time: 14.313
Precursor type: [M+NH4]+
Precursor m/z: 834.7512
Intensity: 14258
m/z	relative intensity
71.085	14
79.054	7
81.07	32
83.084	12
85.101	15
93.069	7
95.086	38
97.102	11
107.086	5
109.099	33
111.117	5
119.086	4
121.1	9
123.117	20
133.1	3
137.134	8
147.115	5
149.133	7
151.151	4
161.131	7
163.148	6
165.161	4
175.148	8
189.164	4
207.212	4
211.204	5
221.222	4
225.212	6
225.224	36
237.221	9
239.235	37
242.251	4
245.226	20
263.237	67
265.248	5
279.242	1
285.218	1
285.248	3
299.259	20
301.259	1
311.258	4
313.272	27
319.265	16
325.273	2
327.284	1
335.258	2
337.273	5
339.288	6
341.304	2
465.384	1
487.451	2
519.446	3
521.463	4
523.436	3
523.455	16
523.475	31
533.443	7
533.47	7
535.458	39
535.481	56
535.8	2
535.822	2
537.487	917
538.477	2
538.505	2
547.471	80
549.487	197
549.51	32
550.496	2
551.501	67
559.751	3
561.487	999
562.493	4
563.503	109
563.542	4
573.699	4
575.503	960
576.493	3
576.514	5
577.479	4
577.507	53
577.526	51
579.53	3
579.554	3
589.504	38
589.525	88
591.545	3
603.535	9
617.541	2
799.695	2
799.729	2
817.685	2
817.737	7
822.752	4
832.129	0
834.504	0
834.707	6
834.752	133
834.801	7
834.909	0
834.989	0
835.785	0
