Mass spectrum: TG 49:3; LC-ESI-QTOF; MS2
Name: TG 49:3
Class:  TAG
Formula: C52H94O6
Exact mass: 815.318
SMILES: CCCCCCCCCCCCC(=O)OCC(COC(=O)CCCCCCCC\C=C/C=C\CCCCC)OC(=O)CCCCCCCCC\C=C/CCCCCC
InChI: InChI=1S/C52H94O6/c1-4-7-10-13-16-19-22-24-26-28-30-33-36-39-42-45-51(54)57-48-49(47-56-50(53)44-41-38-35-32-21-18-15-12-9-6-3)58-52(55)46-43-40-37-34-31-29-27-25-23-20-17-14-11-8-5-2/h16,19-20,22-24,49H,4-15,17-18,21,25-48H2,1-3H3/b19-16-,23-20-,24-22-
Instrument: AB Sciex TripleTOF 5600+ system (Q-TOF) equipped with a DuoSpray ion source
Instrument type: LC-ESI-QTOF
Ms type: MS2
Ion mode: POSITIVE
Collision energy: 45V
Column name: Acquity UPLC Peptide BEH C18 column (50*2.1 mm; 1.7 um; 130A)(Waters Co.,Milford, MA, USA)
Retention time: 14.06184
Precursor type: [M+NH4]+
Precursor m/z: 832.739
Intensity: 5143
m/z	relative intensity
71.087	16
81.069	60
83.086	38
85.1	21
93.07	19
95.084	51
97.105	26
107.084	24
109.099	53
121.101	24
123.117	36
135.118	31
137.133	15
161.131	19
163.147	21
203.177	21
211.205	24
219.208	14
221.189	28
223.201	16
225.219	38
237.22	46
239.237	19
245.225	36
251.238	16
261.224	21
263.232	43
263.242	34
265.249	24
283.238	4
285.248	7
297.241	4
299.262	33
311.264	26
313.278	28
313.299	12
317.252	9
319.268	15
335.251	4
337.274	16
339.286	73
461.192	5
519.433	14
533.444	111
533.466	80
533.802	17
535.469	966
537.483	60
537.508	29
545.452	33
547.475	228
549.486	80
559.469	242
561.486	999
563.51	24
573.485	896
575.498	145
575.517	77
577.506	128
577.536	63
587.477	48
587.503	192
587.525	53
589.524	19
601.516	46
601.539	21
745.46	4
773.693	4
774.68	4
797.687	11
815.672	11
815.713	31
832.714	65
832.743	99
832.776	26
