Mass spectrum: TG 58:8; LC-ESI-QTOF; MS2
Name: TG 58:8
Class:  TAG
Formula: C61H102O6
Exact mass: 931.481
SMILES: CCCCCC\C=C/CCCCCCCCCC(=O)OCC(COC(=O)CC\C=C/C\C=C/C\C=C/C\C=C/C\C=C/C\C=C/CC)OC(=O)CCCCCCCCC\C=C/CCCCCC
InChI: InChI=1S/C61H102O6/c1-4-7-10-13-16-19-22-25-28-29-30-31-34-36-39-42-45-48-51-54-60(63)66-57-58(67-61(64)55-52-49-46-43-40-37-33-27-24-21-18-15-12-9-6-3)56-65-59(62)53-50-47-44-41-38-35-32-26-23-20-17-14-11-8-5-2/h7,10,16,19-21,23-25,28,30-31,36,39,45,48,58H,4-6,8-9,11-15,17-18,22,26-27,29,32-35,37-38,40-44,46-47,49-57H2,1-3H3/b10-7-,19-16-,23-20-,24-21-,28-25-,31-30-,39-36-,48-45-
Instrument: AB Sciex TripleTOF 5600+ system (Q-TOF) equipped with a DuoSpray ion source
Instrument type: LC-ESI-QTOF
Ms type: MS2
Ion mode: POSITIVE
Collision energy: 45V
Column name: Acquity UPLC Peptide BEH C18 column (50*2.1 mm; 1.7 um; 130A)(Waters Co.,Milford, MA, USA)
Retention time: 14.42362
Precursor type: [M+NH4]+
Precursor m/z: 948.7966
Intensity: 36642
m/z	relative intensity
71.086	3
77.037	1
79.054	7
81.069	18
83.085	6
85.1	3
91.053	6
93.07	8
95.085	20
97.063	1
97.1	7
105.069	4
107.085	5
109.1	11
111.116	4
117.07	5
119.085	5
121.101	12
123.115	8
129.068	2
131.084	7
133.101	7
135.116	9
137.131	4
143.087	2
145.099	4
147.116	3
149.095	1
149.131	7
151.149	2
153.126	1
155.081	1
155.09	1
157.1	4
159.115	7
161.095	1
161.132	7
163.109	1
163.148	6
165.162	1
167.084	2
169.102	7
171.116	9
173.131	9
175.11	1
175.147	8
177.163	2
181.099	4
183.115	6
185.095	1
185.133	8
187.109	2
187.147	4
189.127	3
189.162	3
195.118	3
197.132	6
199.113	1
199.146	7
201.124	3
201.161	12
203.143	1
203.179	3
209.132	6
211.149	10
213.129	1
213.164	11
215.142	1
215.179	7
223.148	8
225.164	5
227.136	2
227.149	1
227.178	17
229.16	3
237.162	3
239.179	3
241.157	4
241.195	2
243.176	2
245.229	4
247.241	9
249.162	1
249.262	1
251.179	4
253.197	1
255.174	1
263.238	14
265.196	3
265.251	24
267.208	5
267.269	8
269.191	1
269.225	9
277.197	1
281.226	0
283.203	2
283.24	6
284.289	0
291.21	2
293.225	39
295.242	0
309.217	1
309.229	1
311.236	60
313.251	0
313.275	1
319.244	1
319.265	3
321.283	2
323.291	0
335.259	0
337.273	19
337.3	0
339.231	0
339.289	33
341.305	25
367.256	3
367.272	2
383.237	0
383.259	2
385.266	2
391.282	1
393.298	2
393.315	1
395.309	2
395.326	0
485.359	0
487.381	0
489.403	0
491.396	0
513.386	0
525.377	0
529.487	0
539.44	1
551.511	0
555.439	1
555.465	1
557.456	1
559.485	0
571.472	0
573.452	1
573.473	2
575.476	2
575.506	4
577.492	2
577.514	1
578.502	0
579.525	0
591.474	0
601.501	2
601.518	3
601.536	1
601.626	1
601.653	1
603.436	1
603.53	999
604.537	41
605.573	0
621.511	0
623.495	4
623.518	1
627.513	0
647.501	155
648.507	2
649.516	203
650.508	1
650.532	1
651.533	124
652.528	0
652.549	0
653.555	1
665.495	0
665.526	1
667.505	0
667.534	0
669.54	1
675.526	4
675.555	1
677.55	0
767.625	0
781.62	0
791.646	0
795.641	0
807.624	0
807.679	0
809.671	0
819.68	0
821.664	0
823.69	0
828.693	0
835.674	0
847.698	0
849.667	0
849.714	0
853.721	0
861.682	0
861.724	0
865.733	0
866.736	1
878.706	5
878.74	8
879.694	0
879.773	1
879.801	0
913.701	0
913.734	1
913.771	5
931.698	0
931.766	65
931.81	7
932.77	1
932.814	0
945.813	0
945.879	0
948.798	207
949.744	0
949.772	1
949.81	6
949.862	0
