Mass spectrum: TG 49:2; LC-ESI-QTOF; MS2
Name: TG 49:2
Class:  TAG
Formula: C52H96O6
Exact mass: 817.3340000000001
SMILES: CCCCCCCCCCCCCCCC(=O)OC(COC(=O)CCCCCCCCCCCCCC)COC(=O)CCCCCCCC\C=C/C=C\CCCCC
InChI: InChI=1S/C52H96O6/c1-4-7-10-13-16-19-22-25-26-28-30-33-36-39-42-45-51(54)57-48-49(47-56-50(53)44-41-38-35-32-29-24-21-18-15-12-9-6-3)58-52(55)46-43-40-37-34-31-27-23-20-17-14-11-8-5-2/h16,19,22,25,49H,4-15,17-18,20-21,23-24,26-48H2,1-3H3/b19-16-,25-22-
Instrument: AB Sciex TripleTOF 5600+ system (Q-TOF) equipped with a DuoSpray ion source
Instrument type: LC-ESI-QTOF
Ms type: MS2
Ion mode: POSITIVE
Collision energy: 45V
Column name: Acquity UPLC Peptide BEH C18 column (50*2.1 mm; 1.7 um; 130A)(Waters Co.,Milford, MA, USA)
Retention time: 14.31123
Precursor type: [M+NH4]+
Precursor m/z: 834.7558
Intensity: 5177
m/z	relative intensity
79.054	5
81.069	33
83.087	11
85.1	16
93.069	7
95.085	32
97.1	10
107.087	5
109.1	14
111.114	9
121.1	8
123.115	15
133.099	8
135.114	8
137.133	11
149.131	5
161.133	8
163.15	7
175.147	11
177.163	5
211.203	4
225.223	35
239.235	30
239.265	4
245.223	27
263.236	71
279.247	1
280.256	1
283.258	1
285.24	1
297.262	1
299.255	13
299.27	4
301.261	1
311.252	2
313.274	20
319.261	13
327.288	2
335.262	1
337.272	7
339.293	6
341.311	1
430.987	1
501.475	4
533.461	5
535.467	61
535.813	10
537.484	734
537.504	202
538.492	12
547.453	17
547.476	56
547.511	8
549.461	6
549.473	12
549.491	41
551.494	14
551.515	9
561.487	999
562.476	8
562.501	11
563.497	48
563.514	21
563.53	8
575.5	853
576.509	14
577.502	16
577.534	15
579.526	5
589.504	37
589.53	57
603.536	10
799.687	2
799.737	2
817.717	10
818.725	1
834.74	67
834.764	60
834.814	3
835.757	5
