Mass spectrum: TG 51:0; LC-ESI-QTOF; MS2
Name: TG 51:0
Class:  TAG
Formula: C54H104O6
Exact mass: 849.42
SMILES: CCCCCCCCCCCCCCCCCCC(=O)OCC(COC(=O)CCCCCCCCCCCCCCC)OC(=O)CCCCCCCCCCCCCCC
InChI: InChI=1S/C54H104O6/c1-4-7-10-13-16-19-22-25-26-27-30-32-35-38-41-44-47-53(56)59-50-51(60-54(57)48-45-42-39-36-33-29-24-21-18-15-12-9-6-3)49-58-52(55)46-43-40-37-34-31-28-23-20-17-14-11-8-5-2/h51H,4-50H2,1-3H3
Instrument: AB Sciex TripleTOF 5600+ system (Q-TOF) equipped with a DuoSpray ion source
Instrument type: LC-ESI-QTOF
Ms type: MS2
Ion mode: POSITIVE
Collision energy: 45V
Column name: Acquity UPLC Peptide BEH C18 column (50*2.1 mm; 1.7 um; 130A)(Waters Co.,Milford, MA, USA)
Retention time: 15.34993
Precursor type: [M+NH4]+
Precursor m/z: 866.8151
Intensity: 549
m/z	relative intensity
95.087	39
97.097	45
104.987	39
128.952	58
186.993	460
226.99	84
260.959	39
268.997	999
292.961	217
351.001	98
374.956	58
414.952	64
433.013	137
456.966	178
515.022	58
538.958	123
551.499	517
551.533	98
565.515	439
565.535	299
579.508	176
579.544	299
593.525	319
593.548	739
593.581	278
607.557	137
620.966	196
621.577	98
702.983	78
806.607	98
865.846	39
866.725	90
866.838	84
867.812	58
