Mass spectrum: TG 58:4; LC-ESI-QTOF; MS2
Name: TG 58:4
Class:  TAG
Formula: C61H110O6
Exact mass: 939.545
SMILES: CCCCCCCCCC\C=C/CCCCCCCCCC(=O)OCC(COC(=O)CCCCCCCCC\C=C/CCCCCC)OC(=O)CCCCCCCC\C=C/C=C\CCCCC
InChI: InChI=1S/C61H110O6/c1-4-7-10-13-16-19-22-25-28-29-30-31-34-36-39-42-45-48-51-54-60(63)66-57-58(67-61(64)55-52-49-46-43-40-37-33-27-24-21-18-15-12-9-6-3)56-65-59(62)53-50-47-44-41-38-35-32-26-23-20-17-14-11-8-5-2/h18,20-21,23-24,27,29-30,58H,4-17,19,22,25-26,28,31-57H2,1-3H3/b21-18-,23-20-,27-24-,30-29-
Instrument: AB Sciex TripleTOF 5600+ system (Q-TOF) equipped with a DuoSpray ion source
Instrument type: LC-ESI-QTOF
Ms type: MS2
Ion mode: POSITIVE
Collision energy: 45V
Column name: Acquity UPLC Peptide BEH C18 column (50*2.1 mm; 1.7 um; 130A)(Waters Co.,Milford, MA, USA)
Retention time: 15.27648
Precursor type: [M+NH4]+
Precursor m/z: 956.8646
Intensity: 2673
m/z	relative intensity
81.065	17
83.085	15
95.084	24
97.101	8
109.1	21
121.102	9
135.114	11
163.147	11
245.232	19
247.247	9
263.229	25
263.245	30
265.246	11
265.26	13
275.286	9
289.258	7
291.269	9
293.285	13
299.28	5
303.297	7
317.276	6
319.267	17
321.315	28
332.952	7
337.281	11
339.297	19
367.326	17
377.351	7
395.351	10
573.486	27
575.501	15
575.518	17
599.49	27
599.518	46
601.47	15
601.491	105
601.512	120
601.532	520
603.508	19
603.554	44
604.529	20
606.542	19
608.559	17
625.521	15
626.515	61
626.546	13
627.522	13
627.55	23
628.534	28
629.551	634
630.552	11
631.544	30
631.575	56
633.59	21
655.544	13
655.581	28
657.552	104
657.583	526
657.609	191
658.596	13
659.578	201
659.607	682
659.651	16
660.608	29
683.596	39
685.606	17
685.63	21
715.603	6
835.507	3
907.966	8
910.734	73
910.788	999
911.819	19
921.819	20
939.812	25
939.844	50
939.872	48
956.833	111
956.871	262
956.899	101
956.94	17
957.859	12
