Mass spectrum: TG 58:3; LC-ESI-QTOF; MS2
Name: TG 58:3
Class:  TAG
Formula: C61H112O6
Exact mass: 941.5609999999999
SMILES: CCCCCCCCCC\C=C/CCCCCCCCCC(=O)OCC(COC(=O)CCCCCCCCC\C=C/CCCCCC)OC(=O)CCCCCCCCC\C=C/CCCCCC
InChI: InChI=1S/C61H112O6/c1-4-7-10-13-16-19-22-25-28-29-30-31-34-36-39-42-45-48-51-54-60(63)66-57-58(67-61(64)55-52-49-46-43-40-37-33-27-24-21-18-15-12-9-6-3)56-65-59(62)53-50-47-44-41-38-35-32-26-23-20-17-14-11-8-5-2/h20-21,23-24,29-30,58H,4-19,22,25-28,31-57H2,1-3H3/b23-20-,24-21-,30-29-
Instrument: AB Sciex TripleTOF 5600+ system (Q-TOF) equipped with a DuoSpray ion source
Instrument type: LC-ESI-QTOF
Ms type: MS2
Ion mode: POSITIVE
Collision energy: 45V
Column name: Acquity UPLC Peptide BEH C18 column (50*2.1 mm; 1.7 um; 130A)(Waters Co.,Milford, MA, USA)
Retention time: 15.6651
Precursor type: [M+NH4]+
Precursor m/z: 958.8732
Intensity: 2383
m/z	relative intensity
81.072	9
83.087	10
93.069	5
95.085	11
97.102	13
109.099	6
111.116	5
123.114	8
135.117	8
149.125	5
163.148	4
179.181	5
239.238	9
247.238	12
247.253	6
263.237	8
265.251	43
265.266	10
267.27	8
275.27	4
293.268	5
293.286	22
295.309	2
303.309	6
313.272	2
319.305	3
321.313	12
339.29	14
341.306	4
347.329	2
349.299	6
349.347	3
367.315	7
377.339	7
395.355	2
405.371	1
423.372	1
549.482	8
575.49	42
575.506	54
575.541	8
577.488	20
577.514	117
577.53	27
577.552	11
601.504	12
601.538	10
603.531	549
603.576	10
604.547	7
605.512	21
605.55	307
629.546	25
631.563	670
632.574	8
633.567	167
633.588	272
634.578	5
635.577	6
635.618	9
657.558	30
657.601	15
659.599	999
660.601	10
660.639	6
661.598	65
661.617	37
661.634	30
685.572	9
685.592	18
685.611	63
685.643	17
687.602	10
687.637	23
713.646	1
736.882	1
911.789	7
912.837	8
915.829	5
923.846	5
932.798	6
932.864	27
932.905	6
941.835	19
941.862	10
941.888	7
958.835	36
958.875	112
958.896	65
959.89	8
