Mass spectrum: TG 56:8; LC-ESI-QTOF; MS2
Name: TG 56:8
Class:  TAG
Formula: C59H98O6
Exact mass: 903.427
SMILES: CCCCCCCCCCCCCCCC(=O)OCC(COC(=O)CCC\C=C/C\C=C/C\C=C/C\C=C/CCCCC)OC(=O)CCC\C=C/C\C=C/C\C=C/C\C=C/CCCCC
InChI: InChI=1S/C59H98O6/c1-4-7-10-13-16-19-22-25-27-29-31-34-37-40-43-46-49-52-58(61)64-55-56(54-63-57(60)51-48-45-42-39-36-33-24-21-18-15-12-9-6-3)65-59(62)53-50-47-44-41-38-35-32-30-28-26-23-20-17-14-11-8-5-2/h16-17,19-20,25-28,31-32,34-35,40-41,43-44,56H,4-15,18,21-24,29-30,33,36-39,42,45-55H2,1-3H3/b19-16-,20-17-,27-25-,28-26-,34-31-,35-32-,43-40-,44-41-
Instrument: AB Sciex TripleTOF 5600+ system (Q-TOF) equipped with a DuoSpray ion source
Instrument type: LC-ESI-QTOF
Ms type: MS2
Ion mode: POSITIVE
Collision energy: 45V
Column name: Acquity UPLC Peptide BEH C18 column (50*2.1 mm; 1.7 um; 130A)(Waters Co.,Milford, MA, USA)
Retention time: 14.16058
Precursor type: [M+NH4]+
Precursor m/z: 920.7678
Intensity: 83240
m/z	relative intensity
71.085	6
77.036	1
77.042	1
79.053	7
81.07	25
83.085	10
85.064	1
85.1	6
91.053	12
93.069	10
95.085	30
97.065	2
97.101	6
99.081	1
99.117	1
105.069	7
107.084	7
109.1	19
111.08	1
111.115	2
117.07	6
119.084	11
121.101	12
123.116	14
125.133	1
129.07	4
131.084	10
133.099	9
135.083	1
135.117	8
137.132	6
141.068	1
143.085	4
145.101	8
147.079	1
147.116	7
149.097	2
149.131	7
151.147	2
155.086	3
157.1	9
159.08	1
159.116	10
161.099	1
161.131	14
163.109	1
163.148	7
165.069	1
165.164	2
167.082	1
169.101	7
171.116	13
173.133	9
175.113	2
175.146	11
177.162	3
179.142	1
181.1	6
183.115	7
185.132	11
187.113	3
187.147	8
189.127	3
189.163	5
191.142	1
191.177	1
195.116	5
197.131	8
199.11	2
199.148	10
201.126	4
201.163	14
203.143	2
203.179	4
209.132	8
211.148	10
213.131	1
213.163	11
215.142	2
215.179	11
217.159	1
219.214	1
221.225	1
223.147	10
225.164	6
227.145	2
227.179	20
229.158	4
229.193	1
237.164	4
239.179	3
239.236	31
241.158	5
241.193	1
243.173	1
243.211	1
245.225	8
251.18	5
253.196	2
255.174	3
256.264	1
261.218	1
263.237	30
265.193	4
265.253	1
267.209	5
269.192	2
269.226	11
283.207	3
283.238	5
291.211	2
293.226	45
295.24	1
297.28	1
301.256	0
309.22	4
311.236	78
313.274	56
317.251	1
319.252	2
319.264	6
335.249	1
335.266	0
337.272	38
339.288	2
341.267	0
365.273	0
367.269	10
383.254	1
385.269	3
391.267	1
391.288	2
435.347	0
451.363	0
459.348	1
461.367	0
473.374	0
475.377	0
477.406	0
483.349	0
485.354	0
487.362	0
489.387	0
499.382	0
501.399	0
501.459	0
501.479	0
511.371	0
513.379	0
513.424	0
515.41	0
517.402	0
519.479	0
523.474	1
525.39	0
531.458	1
537.436	0
539.41	0
541.407	0
541.427	0
545.45	1
545.474	0
547.479	0
549.448	1
549.478	1
551.406	0
553.42	0
555.45	1
555.476	0
567.45	0
569.442	1
569.471	1
571.47	0
573.448	2
573.476	7
573.67	0
573.708	3
575.222	0
575.404	0
575.5	999
576.116	0
576.468	4
576.485	36
576.502	109
576.526	21
577.415	0
577.549	1
589.525	0
591.468	0
591.498	0
595.466	0
597.458	0
597.486	1
597.505	0
599.486	0
601.514	0
613.496	0
619.466	0
619.495	0
621.451	0
621.489	6
623.502	229
624.489	0
624.506	1
625.49	0
625.53	1
639.498	1
639.522	0
641.505	1
641.538	0
645.468	0
645.492	0
647.5	264
648.472	0
648.507	1
649.51	6
649.54	2
663.5	0
665.506	1
665.538	0
697.565	0
711.609	0
727.577	0
741.611	0
753.597	0
767.614	0
767.665	0
779.612	0
781.64	0
791.643	0
793.647	0
795.641	0
807.653	0
819.641	0
821.675	0
825.629	0
825.693	49
825.765	0
826.672	0
826.705	0
833.656	0
833.695	0
838.695	0
852.685	0
852.72	0
852.744	0
861.713	0
885.679	0
885.729	6
885.764	0
903.738	71
903.815	1
904.73	0
904.782	0
907.705	0
917.838	0
917.909	0
920.765	183
920.853	0
921.73	0
921.765	1
921.795	0
921.825	0
