Mass spectrum: TG 58:11; LC-ESI-QTOF; MS2
Name: TG 58:11
Class:  TAG
Formula: C61H96O6
Exact mass: 925.433
SMILES: CCCCCC\C=C/CCCCCCCCCC(=O)OCC(COC(=O)CCC\C=C/C\C=C/C\C=C/C\C=C/C\C=C/CC)OC(=O)CCC\C=C/C\C=C/C\C=C/C\C=C/C\C=C/CC
InChI: InChI=1S/C61H96O6/c1-4-7-10-13-16-19-22-25-28-30-33-36-39-42-45-48-51-54-60(63)66-57-58(56-65-59(62)53-50-47-44-41-38-35-32-27-24-21-18-15-12-9-6-3)67-61(64)55-52-49-46-43-40-37-34-31-29-26-23-20-17-14-11-8-5-2/h7-8,10-11,16-17,19-21,24-26,28-29,33-34,36-37,42-43,45-46,58H,4-6,9,12-15,18,22-23,27,30-32,35,38-41,44,47-57H2,1-3H3/b10-7-,11-8-,19-16-,20-17-,24-21-,28-25-,29-26-,36-33-,37-34-,45-42-,46-43-
Instrument: AB Sciex TripleTOF 5600+ system (Q-TOF) equipped with a DuoSpray ion source
Instrument type: LC-ESI-QTOF
Ms type: MS2
Ion mode: POSITIVE
Collision energy: 45V
Column name: Acquity UPLC Peptide BEH C18 column (50*2.1 mm; 1.7 um; 130A)(Waters Co.,Milford, MA, USA)
Retention time: 13.80487
Precursor type: [M+NH4]+
Precursor m/z: 942.7565
Intensity: 746
m/z	relative intensity
79.053	113
105.069	71
161.132	75
167.078	75
173.134	128
175.151	75
261.217	94
263.24	113
293.226	113
311.246	132
317.248	37
337.281	83
339.295	75
385.272	37
389.28	37
553.431	41
597.457	132
597.48	981
597.502	999
597.519	226
599.504	75
621.492	94
623.51	169
643.486	37
645.487	358
647.482	94
647.521	226
649.513	56
860.693	75
860.889	37
874.67	94
883.595	41
907.733	75
925.734	94
942.744	471
942.769	150
942.781	75
