Mass spectrum: TG 52:7; LC-ESI-QTOF; MS2
Name: TG 52:7
Class:  TAG
Formula: C55H92O6
Exact mass: 849.3349999999999
SMILES: CCCCCCCCCCCCCC(=O)OCC(COC(=O)CCC\C=C/C\C=C/C\C=C/C\C=C/C\C=C/CC)OC(=O)CCCCCCCC\C=C/C=C\CCCCC
InChI: InChI=1S/C55H92O6/c1-4-7-10-13-16-19-22-24-26-27-29-30-33-36-39-42-45-48-54(57)60-51-52(50-59-53(56)47-44-41-38-35-32-21-18-15-12-9-6-3)61-55(58)49-46-43-40-37-34-31-28-25-23-20-17-14-11-8-5-2/h7,10,16-17,19-20,23-26,29-30,36,39,52H,4-6,8-9,11-15,18,21-22,27-28,31-35,37-38,40-51H2,1-3H3/b10-7-,19-16-,20-17-,25-23-,26-24-,30-29-,39-36-
Instrument: AB Sciex TripleTOF 5600+ system (Q-TOF) equipped with a DuoSpray ion source
Instrument type: LC-ESI-QTOF
Ms type: MS2
Ion mode: POSITIVE
Collision energy: 45V
Column name: Acquity UPLC Peptide BEH C18 column (50*2.1 mm; 1.7 um; 130A)(Waters Co.,Milford, MA, USA)
Retention time: 13.77395
Precursor type: [M+NH4]+
Precursor m/z: 866.7208
Intensity: 1030
m/z	relative intensity
81.069	44
91.055	20
95.086	40
107.085	23
123.115	23
131.083	27
133.1	25
159.114	23
173.131	21
175.143	25
185.133	18
187.151	20
199.15	29
201.163	76
211.147	20
211.202	48
263.238	31
267.205	48
267.218	46
268.998	37
283.213	6
285.213	48
285.239	90
285.256	31
292.96	6
302.981	8
311.256	23
337.279	72
359.253	6
424.966	6
432.992	11
456.954	6
521.463	10
547.471	999
548.467	17
567.424	14
567.449	14
569.435	37
569.463	120
569.495	16
573.493	20
575.476	10
575.511	22
593.452	16
595.468	32
595.497	16
601.52	31
611.474	8
620.959	8
621.478	162
621.5	111
621.535	23
788.587	14
806.609	10
831.685	12
849.69	40
849.714	38
849.747	14
850.721	4
866.71	101
866.731	84
866.756	31
867.741	11
