Mass spectrum: TG 56:6; LC-ESI-QTOF; MS2
Name: TG 56:6
Class:  TAG
Formula: C59H102O6
Exact mass: 907.4590000000001
SMILES: CCCCCCCCCCCCCCCC(=O)OCC(COC(=O)CCCCC\C=C/C\C=C/C\C=C/C\C=C/C\C=C/CC)OC(=O)CCCCCCCCC\C=C/CCCCCC
InChI: InChI=1S/C59H102O6/c1-4-7-10-13-16-19-22-25-27-28-29-30-32-34-37-40-43-46-49-52-58(61)64-55-56(54-63-57(60)51-48-45-42-39-36-33-24-21-18-15-12-9-6-3)65-59(62)53-50-47-44-41-38-35-31-26-23-20-17-14-11-8-5-2/h7,10,16,19-20,23,25,27,29-30,34,37,56H,4-6,8-9,11-15,17-18,21-22,24,26,28,31-33,35-36,38-55H2,1-3H3/b10-7-,19-16-,23-20-,27-25-,30-29-,37-34-
Instrument: AB Sciex TripleTOF 5600+ system (Q-TOF) equipped with a DuoSpray ion source
Instrument type: LC-ESI-QTOF
Ms type: MS2
Ion mode: POSITIVE
Collision energy: 45V
Column name: Acquity UPLC Peptide BEH C18 column (50*2.1 mm; 1.7 um; 130A)(Waters Co.,Milford, MA, USA)
Retention time: 14.48887
Precursor type: [M+NH4]+
Precursor m/z: 924.8022
Intensity: 18366
m/z	relative intensity
71.085	3
79.053	7
81.069	21
83.085	11
85.099	3
91.053	19
93.068	11
95.084	27
97.1	9
105.068	11
107.086	9
109.099	20
111.114	4
117.07	7
119.085	15
121.1	15
123.114	8
129.07	3
131.084	10
133.101	14
135.116	15
137.131	5
143.085	3
145.099	6
147.118	6
149.13	8
151.147	4
153.126	3
157.101	7
159.118	4
161.132	8
163.147	8
165.161	4
171.116	14
173.13	8
175.112	4
175.148	17
177.161	7
185.133	16
187.148	12
189.127	4
189.162	23
191.179	5
199.149	10
201.164	15
203.179	92
213.162	8
215.177	5
217.194	8
227.177	7
229.197	3
231.211	4
239.238	9
241.196	4
243.212	4
245.224	8
247.24	15
259.204	4
259.241	8
263.237	14
265.251	48
269.227	78
271.234	2
282.279	2
285.222	3
285.265	1
287.237	107
287.278	2
288.239	1
295.24	3
297.258	18
311.239	1
313.249	7
313.26	21
313.279	17
315.268	35
319.262	4
321.278	2
337.275	24
339.29	189
340.3	2
341.301	6
341.316	4
343.245	1
343.267	3
359.252	1
361.273	2
367.316	2
369.281	2
371.297	7
387.285	4
389.304	2
393.296	6
439.394	1
461.363	1
467.416	1
501.395	2
533.46	2
533.483	2
551.464	2
551.489	6
573.491	2
575.503	233
576.516	2
577.514	65
578.513	8
578.539	6
597.498	3
599.502	9
600.478	3
600.526	2
601.497	2
601.522	15
601.551	2
601.65	2
603.534	999
604.519	7
604.542	8
604.556	2
605.518	1
605.568	2
607.517	2
621.483	3
622.478	3
623.501	25
623.565	3
625.519	431
626.522	7
627.534	175
628.551	5
629.545	4
641.506	2
643.516	5
643.551	2
647.479	3
648.503	9
651.534	230
652.52	2
652.544	2
653.55	4
671.536	0
699.63	0
739.634	0
741.668	0
757.614	0
765.645	0
769.615	0
783.665	0
791.626	0
795.646	0
823.711	1
842.729	1
879.757	0
889.757	18
903.764	0
904.666	1
904.747	167
905.713	1
905.753	2
907.774	160
908.762	3
908.806	2
924.776	67
924.801	237
924.881	1
925.793	3
925.822	3
925.862	1
