Mass spectrum: TG 52:1; LC-ESI-QTOF; MS2
Name: TG 52:1
Class:  TAG
Formula: C55H104O6
Exact mass: 861.4309999999999
SMILES: CCCCCCCCCCCCCCCCCC(=O)OC(COC(=O)CCCCCCCCCCCCCCC)COC(=O)CCCCCCCCC\C=C/CCCCCC
InChI: InChI=1S/C55H104O6/c1-4-7-10-13-16-19-22-25-27-30-33-36-39-42-45-48-54(57)60-51-52(50-59-53(56)47-44-41-38-35-32-29-24-21-18-15-12-9-6-3)61-55(58)49-46-43-40-37-34-31-28-26-23-20-17-14-11-8-5-2/h19,22,52H,4-18,20-21,23-51H2,1-3H3/b22-19-
Instrument: AB Sciex TripleTOF 5600+ system (Q-TOF) equipped with a DuoSpray ion source
Instrument type: LC-ESI-QTOF
Ms type: MS2
Ion mode: POSITIVE
Collision energy: 45V
Column name: Acquity UPLC Peptide BEH C18 column (50*2.1 mm; 1.7 um; 130A)(Waters Co.,Milford, MA, USA)
Retention time: 15.15788
Precursor type: [M+NH4]+
Precursor m/z: 878.8129
Intensity: 120806
m/z	relative intensity
71.049	0
71.085	13
77.039	0
79.054	2
81.07	21
83.085	19
85.065	1
85.1	14
91.053	0
93.07	3
95.085	31
97.065	0
97.101	17
99.08	1
99.116	3
107.084	2
109.1	20
111.08	0
111.116	8
113.132	1
121.1	8
123.116	12
125.095	0
125.13	3
127.111	0
127.149	1
135.116	8
137.132	7
139.112	0
139.147	1
141.158	0
141.166	0
149.12	0
149.132	4
151.147	3
153.127	1
153.161	0
155.177	0
163.147	3
165.163	5
167.136	0
167.143	0
167.179	0
169.16	0
177.162	1
177.17	0
179.177	2
181.157	0
191.171	0
191.182	0
193.195	1
205.192	0
207.213	0
219.208	0
221.226	3
237.22	0
239.236	44
247.242	15
249.258	3
256.263	2
257.242	0
265.252	52
267.268	27
275.261	0
275.274	0
279.242	0
282.281	0
284.295	1
285.278	1
293.285	3
295.259	0
297.272	0
297.289	0
299.288	0
303.272	0
313.274	14
314.277	0
321.275	2
321.297	0
323.289	0
323.303	0
325.298	0
325.321	0
337.277	0
339.288	7
341.305	12
349.307	0
349.32	0
367.321	0
367.336	0
395.337	0
503.486	0
523.469	0
523.49	0
531.513	0
549.448	0
549.463	1
549.482	4
549.499	1
549.52	0
551.502	128
552.485	0
552.507	0
575.684	0
575.713	3
575.741	0
576.629	0
576.998	0
577.369	0
577.404	0
577.516	876
578.072	0
578.134	0
578.505	4
578.528	11
578.924	0
579.161	0
579.361	0
579.417	1
579.532	892
580.509	1
580.54	10
591.533	0
603.635	1
603.663	2
603.687	0
604.535	0
605.327	0
605.409	0
605.443	0
605.548	999
606.52	2
606.577	27
606.645	1
606.917	0
633.542	0
633.569	4
633.591	2
633.614	0
822.638	0
843.765	0
843.807	0
852.738	0
852.812	0
859.101	0
861.717	0
861.779	4
861.811	1
861.862	0
876.072	0
876.116	0
878.492	0
878.668	0
878.735	0
878.815	90
878.877	0
879.804	0
879.846	0
883.76	0
