Mass spectrum: TG 56:7; LC-ESI-QTOF; MS2
Name: TG 56:7
Class:  TAG
Formula: C59H100O6
Exact mass: 905.443
SMILES: CCCCCCCCCCCCCCCC(=O)OCC(COC(=O)CC\C=C/C\C=C/C\C=C/C\C=C/C\C=C/C\C=C/CC)OC(=O)CCCCCCCCC\C=C/CCCCCC
InChI: InChI=1S/C59H100O6/c1-4-7-10-13-16-19-22-25-27-28-29-30-32-34-37-40-43-46-49-52-58(61)64-55-56(54-63-57(60)51-48-45-42-39-36-33-24-21-18-15-12-9-6-3)65-59(62)53-50-47-44-41-38-35-31-26-23-20-17-14-11-8-5-2/h7,10,16,19-20,23,25,27,29-30,34,37,43,46,56H,4-6,8-9,11-15,17-18,21-22,24,26,28,31-33,35-36,38-42,44-45,47-55H2,1-3H3/b10-7-,19-16-,23-20-,27-25-,30-29-,37-34-,46-43-
Instrument: AB Sciex TripleTOF 5600+ system (Q-TOF) equipped with a DuoSpray ion source
Instrument type: LC-ESI-QTOF
Ms type: MS2
Ion mode: POSITIVE
Collision energy: 45V
Column name: Acquity UPLC Peptide BEH C18 column (50*2.1 mm; 1.7 um; 130A)(Waters Co.,Milford, MA, USA)
Retention time: 14.38783
Precursor type: [M+NH4]+
Precursor m/z: 922.7815
Intensity: 26868
m/z	relative intensity
71.084	4
77.038	1
79.053	6
81.068	16
83.085	12
85.101	5
91.053	4
93.069	9
95.084	19
97.101	7
99.112	1
105.069	4
107.084	6
109.099	13
111.117	4
117.069	5
119.084	6
121.1	11
123.116	7
125.129	1
129.067	3
131.083	8
133.101	6
135.079	1
135.117	10
137.132	3
141.067	1
143.083	2
145.099	6
147.114	3
149.096	1
149.128	4
151.145	2
155.084	4
157.1	5
159.113	6
161.092	1
161.131	6
163.147	4
165.165	3
167.084	2
169.099	6
171.117	12
173.131	9
175.11	2
175.147	5
175.158	1
177.161	2
179.179	1
181.1	5
183.116	8
185.131	9
187.103	1
187.113	2
187.15	6
189.126	4
189.159	1
195.117	4
197.131	7
199.108	1
199.147	10
201.125	5
201.162	15
203.142	2
203.178	2
209.132	6
211.146	9
213.162	11
215.141	2
215.179	10
223.147	10
225.162	6
227.146	3
227.179	21
229.16	3
231.174	1
237.164	6
239.178	4
239.236	29
241.157	5
241.196	1
243.171	1
247.24	10
251.178	5
253.194	2
255.169	2
255.183	1
265.196	5
265.252	34
267.211	4
269.191	1
269.223	9
271.172	0
277.196	0
282.278	0
283.205	2
283.241	7
285.226	0
291.211	1
293.226	51
294.234	0
295.236	1
295.263	0
297.28	0
303.208	0
307.197	0
309.212	1
309.224	1
311.236	73
311.28	0
312.237	1
313.222	0
313.272	42
314.27	0
319.266	0
321.264	0
321.281	1
325.225	0
327.23	0
331.239	0
337.273	0
339.29	41
340.287	0
341.305	0
349.249	0
355.279	0
367.26	7
367.278	6
368.268	0
383.24	0
383.26	3
385.269	1
385.295	0
393.295	2
393.315	1
409.328	0
433.332	0
447.346	0
453.389	0
463.383	0
465.398	0
473.397	0
487.38	0
499.38	1
503.491	0
513.398	0
515.421	0
527.406	0
531.453	1
539.456	0
549.451	1
549.487	0
551.496	10
551.528	2
552.468	1
552.505	13
552.534	1
552.559	0
557.464	2
567.471	1
575.48	4
575.504	3
575.713	2
575.732	1
575.747	1
577.352	0
577.517	999
578.521	37
579.439	0
593.47	0
595.478	1
599.501	1
601.488	0
601.518	2
603.521	1
603.553	1
621.454	1
621.481	2
621.503	2
623.502	244
624.508	17
625.506	1
639.491	1
641.518	1
647.498	0
649.517	273
650.504	2
650.531	8
651.525	1
651.546	2
665.518	0
667.507	0
677.536	0
781.616	0
783.658	0
795.653	0
802.685	0
809.681	0
821.674	0
823.636	0
823.7	0
835.663	0
835.721	0
837.681	0
840.699	0
840.751	0
849.685	0
854.697	0
854.751	0
863.729	0
880.745	1
887.735	2
887.771	2
897.744	1
897.773	1
905.726	9
905.756	53
905.827	1
906.725	0
906.754	1
906.792	0
919.895	0
922.782	165
923.747	1
923.769	3
923.793	5
923.818	2
923.841	1
923.866	0
