Mass spectrum: TG 56:9; LC-ESI-QTOF; MS2
Name: TG 56:9
Class:  TAG
Formula: C59H96O6
Exact mass: 901.4110000000001
SMILES: CCCCCCCC\C=C/CCCCCC(=O)OCC(COC(=O)CC\C=C/C\C=C/C\C=C/C\C=C/C\C=C/C\C=C/CC)OC(=O)CCCCCCCC\C=C/C=C\CCCCC
InChI: InChI=1S/C59H96O6/c1-4-7-10-13-16-19-22-25-27-28-29-30-32-34-37-40-43-46-49-52-58(61)64-55-56(54-63-57(60)51-48-45-42-39-36-33-24-21-18-15-12-9-6-3)65-59(62)53-50-47-44-41-38-35-31-26-23-20-17-14-11-8-5-2/h7,10,16-17,19-20,23,25-27,29-30,33-34,36-37,43,46,56H,4-6,8-9,11-15,18,21-22,24,28,31-32,35,38-42,44-45,47-55H2,1-3H3/b10-7-,19-16-,20-17-,26-23-,27-25-,30-29-,36-33-,37-34-,46-43-
Instrument: AB Sciex TripleTOF 5600+ system (Q-TOF) equipped with a DuoSpray ion source
Instrument type: LC-ESI-QTOF
Ms type: MS2
Ion mode: POSITIVE
Collision energy: 45V
Column name: Acquity UPLC Peptide BEH C18 column (50*2.1 mm; 1.7 um; 130A)(Waters Co.,Milford, MA, USA)
Retention time: 13.87829
Precursor type: [M+NH4]+
Precursor m/z: 918.7573
Intensity: 6642
m/z	relative intensity
79.053	9
81.068	24
83.083	11
91.054	7
93.069	14
95.085	16
105.069	4
107.084	7
109.1	10
117.07	5
119.084	9
121.099	14
123.114	11
131.079	6
131.087	6
133.099	9
135.114	13
137.134	4
143.083	4
145.098	5
147.114	4
159.117	10
161.13	8
163.148	7
169.101	9
171.114	8
173.129	12
175.146	9
181.1	4
183.11	5
185.131	9
197.133	7
199.146	7
201.129	4
201.162	10
203.181	6
209.134	6
211.146	9
213.167	7
215.182	8
219.207	8
223.142	6
225.165	5
227.177	14
237.173	4
237.222	18
245.224	4
261.223	6
263.235	18
263.247	8
267.21	6
269.229	6
283.208	3
283.241	4
293.215	6
293.228	28
295.256	2
309.212	3
309.241	4
311.231	41
311.245	47
311.269	14
311.283	4
313.277	3
317.244	2
319.248	2
319.27	2
335.257	5
337.261	9
337.275	28
339.295	2
365.265	3
367.252	2
367.273	5
383.258	2
385.278	3
391.29	4
459.348	2
475.374	2
511.394	3
547.458	4
571.462	6
571.684	2
573.489	999
574.465	2
574.489	15
575.482	2
575.523	3
591.497	2
595.478	2
597.455	2
597.484	3
597.523	2
599.501	16
599.524	5
601.505	2
601.533	4
602.528	7
617.521	2
619.473	26
619.517	2
621.482	106
621.502	67
622.498	2
623.479	5
623.502	13
623.52	9
639.507	2
645.486	16
645.51	4
645.52	2
647.506	232
648.513	3
649.493	2
649.518	6
649.543	2
671.475	1
673.525	1
791.614	1
793.62	1
817.632	1
819.664	2
831.653	2
836.682	2
850.66	1
850.724	1
883.711	4
883.752	3
899.712	204
899.784	5
900.736	3
901.661	2
901.683	5
901.727	39
901.772	8
901.812	2
902.728	2
918.681	2
918.72	29
918.76	178
919.73	2
919.779	2
919.826	1
