Mass spectrum: TG 64:12; LC-ESI-QTOF; MS2
Name: TG 64:12
Class:  TAG
Formula: C67H106O6
Exact mass: 1007.579
SMILES: CCCCC\C=C/C\C=C/C\C=C/C\C=C/CCCC(=O)OCC(COC(=O)CCCCCCCC\C=C/C\C=C/C\C=C/C\C=C/CC)OC(=O)CCCCCCCC\C=C/C\C=C/C\C=C/C\C=C/CC
InChI: InChI=1S/C67H106O6/c1-4-7-10-13-16-19-22-25-28-31-33-36-39-42-45-48-51-54-57-60-66(69)72-63-64(62-71-65(68)59-56-53-50-47-44-41-38-35-30-27-24-21-18-15-12-9-6-3)73-67(70)61-58-55-52-49-46-43-40-37-34-32-29-26-23-20-17-14-11-8-5-2/h7-8,10-11,16-21,25-30,33-34,36-38,41,47,50,64H,4-6,9,12-15,22-24,31-32,35,39-40,42-46,48-49,51-63H2,1-3H3/b10-7-,11-8-,19-16-,20-17-,21-18-,28-25-,29-26-,30-27-,36-33-,37-34-,41-38-,50-47-
Instrument: AB Sciex TripleTOF 5600+ system (Q-TOF) equipped with a DuoSpray ion source
Instrument type: LC-ESI-QTOF
Ms type: MS2
Ion mode: POSITIVE
Collision energy: 45V
Column name: Acquity UPLC Peptide BEH C18 column (50*2.1 mm; 1.7 um; 130A)(Waters Co.,Milford, MA, USA)
Retention time: 14.39071
Precursor type: [M+NH4]+
Precursor m/z: 1024.837
Intensity: 1552
m/z	relative intensity
81.07	16
93.073	6
117.073	8
161.133	7
171.116	7
173.133	9
175.151	8
185.132	11
199.152	6
223.145	7
225.17	8
227.181	8
239.179	9
245.231	8
263.239	12
279.208	6
294.235	4
295.235	5
311.231	9
313.263	6
337.271	16
351.234	18
367.316	8
368.306	4
368.333	4
391.307	10
577.521	26
599.473	24
599.48	38
599.488	65
599.507	187
599.535	23
645.46	7
645.507	18
649.522	18
651.528	6
671.491	17
671.503	6
671.515	12
671.528	10
671.553	10
677.534	10
677.559	16
678.557	71
678.591	13
679.515	4
679.554	46
679.577	21
679.585	18
696.516	13
697.518	18
725.551	6
727.532	6
727.566	57
727.599	35
827.713	6
857.651	5
927.698	45
927.706	66
927.728	157
927.755	999
927.784	168
927.797	105
928.743	18
928.801	12
942.758	9
1001.749	15
1001.8	9
1007.762	13
1007.837	19
1024.774	9
1024.818	85
1024.86	65
