Mass spectrum: TG 56:5; LC-ESI-QTOF; MS2
Name: TG 56:5
Class:  TAG
Formula: C59H104O6
Exact mass: 909.475
SMILES: CCCCCCCC\C=C/CCCCCCCCCC(=O)OCC(COC(=O)CCCCCCCC\C=C/C=C\CCCCC)OC(=O)CCCCCCCC\C=C/C=C\CCCCC
InChI: InChI=1S/C59H104O6/c1-4-7-10-13-16-19-22-25-28-29-32-34-37-40-43-46-49-52-58(61)64-55-56(65-59(62)53-50-47-44-41-38-35-31-27-24-21-18-15-12-9-6-3)54-63-57(60)51-48-45-42-39-36-33-30-26-23-20-17-14-11-8-5-2/h17-18,20-21,23-28,56H,4-16,19,22,29-55H2,1-3H3/b20-17-,21-18-,26-23-,27-24-,28-25-
Instrument: AB Sciex TripleTOF 5600+ system (Q-TOF) equipped with a DuoSpray ion source
Instrument type: LC-ESI-QTOF
Ms type: MS2
Ion mode: POSITIVE
Collision energy: 45V
Column name: Acquity UPLC Peptide BEH C18 column (50*2.1 mm; 1.7 um; 130A)(Waters Co.,Milford, MA, USA)
Retention time: 14.31102
Precursor type: [M+NH4]+
Precursor m/z: 926.8171
Intensity: 3261
m/z	relative intensity
81.072	8
95.086	6
109.106	11
119.089	10
177.163	6
245.231	7
265.247	11
271.249	6
289.259	11
301.23	4
304.23	4
313.284	4
314.234	4
337.25	6
337.284	4
338.264	6
339.281	6
340.291	5
341.287	7
363.276	4
367.326	4
599.466	31
599.541	33
600.481	45
601.461	27
601.503	42
601.529	31
602.488	45
602.513	38
603.521	63
603.583	22
622.45	36
623.457	38
623.482	72
623.573	35
624.47	56
625.479	90
625.512	25
625.602	22
627.521	36
627.559	26
627.593	23
628.494	27
628.55	61
629.503	61
629.521	24
629.546	29
629.568	38
629.578	33
629.587	23
629.602	36
700.897	4
753.713	4
905.681	380
905.71	999
905.745	462
905.774	161
905.785	171
905.813	205
905.848	206
905.882	106
905.914	44
906.716	24
909.711	29
909.756	18
909.853	26
926.748	94
926.791	77
926.815	265
926.881	65
926.91	20
927.702	29
927.84	22
