Mass spectrum: TG 50:4; LC-ESI-QTOF; MS2
Name: TG 50:4
Class:  TAG
Formula: C53H94O6
Exact mass: 827.329
SMILES: CCCCCCCCCCCCCCCC(=O)OC(COC(=O)CCCCCCCCCCCCC)COC(=O)CCC\C=C/C\C=C/C\C=C/C\C=C/CCCCC
InChI: InChI=1S/C53H94O6/c1-4-7-10-13-16-19-22-24-25-26-27-29-31-34-37-40-43-46-52(55)58-49-50(48-57-51(54)45-42-39-36-33-30-21-18-15-12-9-6-3)59-53(56)47-44-41-38-35-32-28-23-20-17-14-11-8-5-2/h16,19,24-25,27,29,34,37,50H,4-15,17-18,20-23,26,28,30-33,35-36,38-49H2,1-3H3/b19-16-,25-24-,29-27-,37-34-
Instrument: AB Sciex TripleTOF 5600+ system (Q-TOF) equipped with a DuoSpray ion source
Instrument type: LC-ESI-QTOF
Ms type: MS2
Ion mode: POSITIVE
Collision energy: 45V
Column name: Acquity UPLC Peptide BEH C18 column (50*2.1 mm; 1.7 um; 130A)(Waters Co.,Milford, MA, USA)
Retention time: 14.13448
Precursor type: [M+NH4]+
Precursor m/z: 844.7405
Intensity: 1941
m/z	relative intensity
81.07	31
85.101	19
91.055	26
93.069	17
95.084	38
105.069	19
109.098	25
119.088	23
171.121	21
185.132	23
189.163	29
199.146	17
201.164	17
203.178	127
211.206	61
239.233	25
269.0	37
269.227	122
271.215	5
283.233	5
285.243	167
287.236	115
287.251	26
292.956	12
313.273	161
339.248	9
339.285	13
343.261	5
351.013	5
352.968	5
374.96	7
376.98	5
433.011	9
434.996	7
517.015	16
521.844	9
523.45	229
523.475	999
524.494	9
543.437	11
545.431	9
545.456	73
547.45	15
547.48	27
549.48	28
551.519	17
571.471	256
571.504	33
572.469	23
575.481	9
575.509	23
577.504	89
577.526	109
599.012	11
599.499	303
599.541	26
627.533	9
680.944	3
809.707	7
827.691	60
827.721	31
828.665	37
828.707	105
828.728	45
828.757	19
843.813	3
844.629	19
844.668	37
844.7	37
844.723	83
844.74	48
844.771	27
844.789	15
