Mass spectrum: TG 58:10; LC-ESI-QTOF; MS2
Name: TG 58:10
Class:  TAG
Formula: C61H98O6
Exact mass: 927.449
SMILES: CCCCC\C=C/C=C\CCCCCCCCC(=O)OCC(COC(=O)CC\C=C/C\C=C/C\C=C/C\C=C/C\C=C/C\C=C/CC)OC(=O)CCCCCCCC\C=C/C=C\CCCCC
InChI: InChI=1S/C61H98O6/c1-4-7-10-13-16-19-22-25-28-29-30-31-34-36-39-42-45-48-51-54-60(63)66-57-58(67-61(64)55-52-49-46-43-40-37-33-27-24-21-18-15-12-9-6-3)56-65-59(62)53-50-47-44-41-38-35-32-26-23-20-17-14-11-8-5-2/h7,10,16-21,23-28,30-31,36,39,45,48,58H,4-6,8-9,11-15,22,29,32-35,37-38,40-44,46-47,49-57H2,1-3H3/b10-7-,19-16-,20-17-,21-18-,26-23-,27-24-,28-25-,31-30-,39-36-,48-45-
Instrument: AB Sciex TripleTOF 5600+ system (Q-TOF) equipped with a DuoSpray ion source
Instrument type: LC-ESI-QTOF
Ms type: MS2
Ion mode: POSITIVE
Collision energy: 45V
Column name: Acquity UPLC Peptide BEH C18 column (50*2.1 mm; 1.7 um; 130A)(Waters Co.,Milford, MA, USA)
Retention time: 13.97648
Precursor type: [M+NH4]+
Precursor m/z: 944.7659
Intensity: 60180
m/z	relative intensity
77.038	2
79.053	5
81.07	26
83.084	5
91.053	11
93.069	13
95.085	28
97.066	1
97.1	4
99.08	1
105.069	5
107.084	10
109.099	15
111.079	2
115.051	1
117.068	7
119.085	9
121.1	13
123.116	10
129.064	1
129.073	3
131.085	8
133.1	11
135.08	1
135.116	11
137.131	6
141.073	1
143.081	3
143.091	1
145.1	6
147.082	1
147.116	8
149.131	7
151.144	2
153.127	1
155.09	2
157.099	7
159.116	8
161.131	15
163.111	1
163.146	8
165.13	1
165.164	1
167.084	2
169.101	8
171.117	12
173.133	9
175.113	2
175.147	19
177.164	4
181.103	4
183.116	6
185.131	13
187.11	4
187.148	7
189.127	4
189.162	6
191.141	1
195.116	4
197.132	8
199.11	1
199.147	9
201.124	1
201.164	12
203.143	2
203.178	5
209.133	6
211.148	10
213.125	1
213.162	10
215.142	2
215.173	5
215.183	4
217.196	1
221.13	2
223.146	6
225.165	6
227.142	3
227.179	14
229.159	4
229.197	2
237.162	4
239.18	3
241.15	2
241.163	3
241.191	2
243.177	1
243.209	2
245.225	13
247.243	1
249.18	1
251.181	5
253.196	1
261.217	3
261.231	1
263.236	44
265.189	2
265.203	1
265.254	4
267.199	1
267.215	4
269.227	10
281.226	1
283.207	2
283.24	4
291.21	3
291.228	1
293.225	42
295.24	1
301.251	1
309.215	4
309.227	3
311.236	60
317.24	3
317.253	1
319.26	9
321.272	1
327.227	1
335.254	4
335.269	1
337.273	71
339.286	8
367.26	4
383.258	1
385.269	3
391.284	4
483.344	1
485.358	0
523.366	0
525.39	1
525.455	1
525.477	1
529.427	0
537.444	0
543.475	0
547.467	1
547.491	0
555.45	1
555.473	1
569.45	2
569.466	1
571.454	1
573.454	3
573.473	3
591.469	1
597.465	2
597.491	6
597.621	1
597.641	1
599.5	999
600.497	14
600.516	2
600.532	1
601.494	3
601.523	12
617.52	1
621.472	1
621.493	1
623.49	1
625.507	0
629.493	1
645.486	33
647.5	425
648.47	0
648.51	3
649.511	27
649.535	8
663.505	2
665.494	1
665.516	1
671.498	0
673.496	0
673.53	0
681.576	0
693.548	0
723.557	0
725.562	0
731.588	0
737.567	0
751.588	0
763.594	0
765.624	0
777.614	0
779.599	0
787.622	0
791.628	0
801.651	0
803.625	0
805.64	0
815.651	0
817.619	0
819.667	0
843.629	1
843.67	0
845.653	0
849.692	51
849.748	2
850.667	0
850.709	0
857.659	0
857.692	0
862.687	0
871.664	0
876.709	1
885.722	0
899.689	0
909.716	4
909.736	4
909.786	0
927.667	0
927.74	84
928.699	0
928.724	0
928.752	1
931.755	0
941.783	0
941.832	0
944.674	0
944.765	245
945.761	5
945.798	2
