Mass spectrum: TG 58:8; LC-ESI-QTOF; MS2
Name: TG 58:8
Class:  TAG
Formula: C61H102O6
Exact mass: 931.481
SMILES: CCCCCC\C=C/CCCCCCCCCC(=O)OCC(COC(=O)CC\C=C/C\C=C/C\C=C/C\C=C/C\C=C/C\C=C/CC)OC(=O)CCCCCCCCC\C=C/CCCCCC
InChI: InChI=1S/C61H102O6/c1-4-7-10-13-16-19-22-25-28-29-30-31-34-36-39-42-45-48-51-54-60(63)66-57-58(67-61(64)55-52-49-46-43-40-37-33-27-24-21-18-15-12-9-6-3)56-65-59(62)53-50-47-44-41-38-35-32-26-23-20-17-14-11-8-5-2/h7,10,16,19-21,23-25,28,30-31,36,39,45,48,58H,4-6,8-9,11-15,17-18,22,26-27,29,32-35,37-38,40-44,46-47,49-57H2,1-3H3/b10-7-,19-16-,23-20-,24-21-,28-25-,31-30-,39-36-,48-45-
Instrument: AB Sciex TripleTOF 5600+ system (Q-TOF) equipped with a DuoSpray ion source
Instrument type: LC-ESI-QTOF
Ms type: MS2
Ion mode: POSITIVE
Collision energy: 45V
Column name: Acquity UPLC Peptide BEH C18 column (50*2.1 mm; 1.7 um; 130A)(Waters Co.,Milford, MA, USA)
Retention time: 14.41964
Precursor type: [M+NH4]+
Precursor m/z: 948.7993
Intensity: 13631
m/z	relative intensity
79.053	8
81.069	14
83.081	5
83.09	3
85.101	3
91.052	5
93.069	10
95.084	21
97.1	6
105.07	5
107.085	4
109.1	12
117.069	5
119.084	6
121.1	11
123.116	8
131.084	5
133.101	6
135.116	11
145.099	5
147.115	3
149.133	4
159.112	4
161.131	6
163.145	5
169.099	7
171.116	10
173.133	10
175.147	8
181.097	4
183.117	6
185.129	7
187.147	6
189.126	3
189.164	4
195.115	4
197.131	6
199.141	4
199.152	5
201.163	10
209.134	5
211.146	6
213.163	10
215.178	8
223.146	9
225.164	6
227.18	17
237.163	6
241.161	3
245.226	5
247.241	7
251.179	6
263.236	15
265.251	25
265.269	3
267.266	9
269.224	6
269.236	4
277.197	1
283.204	2
283.239	5
291.204	1
291.219	2
293.225	42
309.217	3
309.235	1
311.237	68
319.269	3
321.283	1
327.239	1
337.275	11
339.29	38
341.306	26
367.25	2
367.271	4
383.254	1
385.27	1
391.282	1
393.284	1
393.307	3
395.311	1
395.339	1
529.508	1
549.471	3
551.486	1
551.51	1
555.448	1
557.458	1
571.458	2
571.485	1
573.459	2
573.477	2
575.469	2
575.497	8
575.535	2
577.508	2
597.467	4
597.486	5
597.525	1
599.522	1
601.512	3
601.534	2
601.643	1
601.664	2
603.532	999
604.542	40
605.539	3
605.558	1
621.49	1
623.51	3
645.486	1
647.506	132
647.567	2
648.485	1
648.51	1
649.517	148
649.54	55
650.502	2
650.529	4
650.562	1
651.533	107
652.52	2
665.499	1
665.522	1
667.528	2
675.538	2
677.552	0
781.621	0
807.668	0
821.65	0
828.711	1
847.698	0
849.709	0
853.731	179
853.798	5
854.69	1
854.714	2
854.743	3
854.767	1
861.674	1
866.686	0
866.726	2
879.736	1
880.731	2
880.771	0
913.739	2
913.773	3
913.824	1
931.74	8
931.77	40
931.799	20
931.828	3
931.859	0
932.781	2
948.798	195
948.828	80
948.895	1
949.762	2
949.787	5
949.816	4
949.849	2
