Mass spectrum: TG 56:8; LC-ESI-QTOF; MS2
Name: TG 56:8
Class:  TAG
Formula: C59H98O6
Exact mass: 903.427
SMILES: CCCCCC\C=C/CCCCCCCCCC(=O)OCC(COC(=O)CCC\C=C/C\C=C/C\C=C/C\C=C/C\C=C/CC)OC(=O)CCCCCCCC\C=C/C=C\CCCCC
InChI: InChI=1S/C59H98O6/c1-4-7-10-13-16-19-22-25-28-29-32-34-37-40-43-46-49-52-58(61)64-55-56(65-59(62)53-50-47-44-41-38-35-31-27-24-21-18-15-12-9-6-3)54-63-57(60)51-48-45-42-39-36-33-30-26-23-20-17-14-11-8-5-2/h7,10,16,18-21,23-25,27-28,32,34,40,43,56H,4-6,8-9,11-15,17,22,26,29-31,33,35-39,41-42,44-55H2,1-3H3/b10-7-,19-16-,21-18-,23-20-,27-24-,28-25-,34-32-,43-40-
Instrument: AB Sciex TripleTOF 5600+ system (Q-TOF) equipped with a DuoSpray ion source
Instrument type: LC-ESI-QTOF
Ms type: MS2
Ion mode: POSITIVE
Collision energy: 45V
Column name: Acquity UPLC Peptide BEH C18 column (50*2.1 mm; 1.7 um; 130A)(Waters Co.,Milford, MA, USA)
Retention time: 14.03576
Precursor type: [M+NH4]+
Precursor m/z: 920.7737
Intensity: 31003
m/z	relative intensity
79.054	9
81.069	24
83.084	7
85.064	3
91.053	12
93.069	10
95.085	28
97.099	5
105.07	9
107.081	6
107.088	5
109.099	14
111.079	3
117.069	7
119.084	15
121.1	14
123.116	8
125.095	2
131.084	7
133.092	2
133.101	14
135.116	10
137.133	7
143.082	3
145.105	4
147.114	8
149.13	8
157.102	4
159.115	6
161.13	14
163.148	7
171.116	19
173.133	6
175.112	3
175.147	20
177.161	10
185.132	10
187.147	13
189.125	3
189.16	18
191.176	7
199.147	12
201.164	12
203.139	3
203.179	88
213.165	6
215.176	4
227.183	4
241.196	5
243.212	6
245.225	20
259.204	3
259.242	6
261.215	5
261.228	3
263.236	48
265.252	4
267.208	3
269.226	74
271.232	1
271.246	2
285.222	10
287.236	90
289.24	1
289.258	2
301.264	1
311.237	1
313.258	2
315.271	1
317.249	2
319.259	13
335.257	7
335.274	4
337.274	161
338.276	1
339.288	13
343.255	2
343.279	1
359.254	2
361.271	3
363.299	1
391.265	1
391.289	5
393.299	1
397.316	1
447.346	1
459.343	1
465.412	1
485.36	1
531.463	2
549.461	6
549.484	2
573.476	10
573.506	5
575.495	5
575.52	1
595.473	2
597.459	2
597.487	7
597.512	4
599.502	999
600.456	2
600.502	25
600.531	6
601.519	32
603.528	3
617.506	5
617.535	2
621.458	5
621.487	56
622.475	11
622.522	3
623.504	440
624.5	6
624.528	3
625.508	23
625.531	10
627.539	2
639.502	2
641.504	2
641.536	2
647.508	2
649.517	2
675.532	1
677.554	0
695.537	0
721.556	0
725.576	1
737.573	0
739.598	0
753.601	1
763.581	0
765.618	1
779.593	0
791.623	3
793.614	0
805.612	0
805.666	1
819.654	1
819.696	2
833.68	1
838.684	4
838.718	4
885.671	1
885.708	4
885.736	6
885.767	3
886.75	0
901.706	1
902.723	219
902.771	19
902.866	0
903.671	2
903.744	119
904.735	1
904.769	2
917.866	0
920.68	1
920.772	261
920.822	11
921.758	3
921.783	2
921.822	1
