Mass spectrum: TG 60:10; LC-ESI-QTOF; MS2
Name: TG 60:10
Class:  TAG
Formula: C63H102O6
Exact mass: 955.503
SMILES: CCCCCCCCCCCCCCCC(=O)OCC(COC(=O)CCCCC\C=C/C\C=C/C\C=C/C\C=C/C\C=C/CC)OC(=O)CCCCC\C=C/C\C=C/C\C=C/C\C=C/C\C=C/CC
InChI: InChI=1S/C63H102O6/c1-4-7-10-13-16-19-22-25-27-29-31-33-35-38-41-44-47-50-53-56-62(65)68-59-60(58-67-61(64)55-52-49-46-43-40-37-24-21-18-15-12-9-6-3)69-63(66)57-54-51-48-45-42-39-36-34-32-30-28-26-23-20-17-14-11-8-5-2/h7-8,10-11,16-17,19-20,25-28,31-34,38-39,41-42,60H,4-6,9,12-15,18,21-24,29-30,35-37,40,43-59H2,1-3H3/b10-7-,11-8-,19-16-,20-17-,27-25-,28-26-,33-31-,34-32-,41-38-,42-39-
Instrument: AB Sciex TripleTOF 5600+ system (Q-TOF) equipped with a DuoSpray ion source
Instrument type: LC-ESI-QTOF
Ms type: MS2
Ion mode: POSITIVE
Collision energy: 45V
Column name: Acquity UPLC Peptide BEH C18 column (50*2.1 mm; 1.7 um; 130A)(Waters Co.,Milford, MA, USA)
Retention time: 14.20863
Precursor type: [M+NH4]+
Precursor m/z: 972.7991
Intensity: 4180
m/z	relative intensity
79.053	16
81.069	31
83.086	16
91.054	27
93.068	30
95.087	24
105.069	31
117.069	16
119.085	27
121.097	17
133.098	22
135.118	15
145.101	20
159.114	17
161.133	26
163.148	18
171.118	35
173.132	19
175.149	21
177.165	17
185.131	19
187.149	32
189.166	32
191.183	13
199.147	21
201.162	36
203.178	128
213.165	19
215.179	21
217.197	18
245.224	14
269.223	85
271.242	12
283.206	6
285.217	12
285.232	7
287.237	57
287.25	13
289.252	13
293.235	7
295.23	13
295.253	8
297.258	29
311.239	12
313.243	20
313.278	8
315.264	42
337.273	140
339.285	20
339.297	11
361.271	10
365.302	7
371.294	13
385.271	7
387.297	11
389.306	81
573.513	6
575.476	8
575.51	14
595.461	16
597.481	26
597.51	12
599.504	11
601.513	11
621.481	12
621.525	7
623.5	284
624.493	17
624.532	8
625.511	131
625.535	55
627.499	14
627.54	53
647.502	8
649.492	7
649.506	18
649.531	31
651.53	999
651.587	16
652.53	12
653.548	23
669.529	7
669.561	7
673.516	44
673.544	12
673.626	3
675.504	44
675.533	152
675.564	24
676.514	4
693.558	4
698.544	4
699.53	9
701.562	4
803.623	3
843.637	4
852.694	9
877.725	898
877.805	11
878.726	14
878.764	12
890.707	16
901.719	8
937.747	12
955.708	7
955.747	48
955.776	119
955.82	32
972.749	70
972.773	119
972.801	297
972.836	76
973.763	10
973.817	13
