Mass spectrum: TG 52:7; LC-ESI-QTOF; MS2
Name: TG 52:7
Class:  TAG
Formula: C55H92O6
Exact mass: 849.3349999999999
SMILES: CCCCCCCCCCCCCCCC(=O)OCC(COC(=O)CCC\C=C/C\C=C/C\C=C/C\C=C/CCCCC)OC(=O)CCCCCCC\C=C/C=C\C=C/CC
InChI: InChI=1S/C55H92O6/c1-4-7-10-13-16-19-22-25-26-27-28-31-33-36-39-42-45-48-54(57)60-51-52(61-55(58)49-46-43-40-37-34-30-24-21-18-15-12-9-6-3)50-59-53(56)47-44-41-38-35-32-29-23-20-17-14-11-8-5-2/h9,12,15-16,18-19,21,24-26,28,31,36,39,52H,4-8,10-11,13-14,17,20,22-23,27,29-30,32-35,37-38,40-51H2,1-3H3/b12-9-,18-15-,19-16-,24-21-,26-25-,31-28-,39-36-
Instrument: AB Sciex TripleTOF 5600+ system (Q-TOF) equipped with a DuoSpray ion source
Instrument type: LC-ESI-QTOF
Ms type: MS2
Ion mode: POSITIVE
Collision energy: 45V
Column name: Acquity UPLC Peptide BEH C18 column (50*2.1 mm; 1.7 um; 130A)(Waters Co.,Milford, MA, USA)
Retention time: 13.7799
Precursor type: [M+NH4]+
Precursor m/z: 866.7181
Intensity: 843
m/z	relative intensity
95.083	95
105.071	73
109.101	63
145.107	41
147.113	41
183.113	41
185.135	52
201.159	65
201.179	52
211.204	44
226.983	62
227.001	52
263.233	62
267.211	104
268.995	126
283.226	41
285.215	52
285.24	117
285.263	36
292.957	243
293.226	41
308.978	52
311.245	62
313.276	104
337.271	97
374.966	105
390.996	128
433.009	31
456.969	83
472.995	31
519.435	118
521.441	181
521.463	414
538.958	62
547.476	999
567.455	52
569.437	62
569.452	105
569.474	117
575.487	62
593.452	296
595.483	62
601.503	62
601.545	94
621.477	80
621.498	127
623.5	201
625.506	73
625.534	94
703.003	34
784.65	55
784.95	25
788.593	31
806.584	31
831.714	20
849.681	114
849.717	62
866.682	115
866.732	330
