Mass spectrum: TG 45:1; LC-ESI-QTOF; MS2
Name: TG 45:1
Class:  TAG
Formula: C48H90O6
Exact mass: 763.2420000000001
SMILES: CCCCCCCCCCCCCCCC(=O)OC(COC(=O)CCCCCCCCCCCC)COC(=O)CCCCC\C=C/CCCCCCCC
InChI: InChI=1S/C48H90O6/c1-4-7-10-13-16-19-22-24-26-29-32-35-38-41-47(50)53-44-45(43-52-46(49)40-37-34-31-28-21-18-15-12-9-6-3)54-48(51)42-39-36-33-30-27-25-23-20-17-14-11-8-5-2/h24,26,45H,4-23,25,27-44H2,1-3H3/b26-24-
Instrument: AB Sciex TripleTOF 5600+ system (Q-TOF) equipped with a DuoSpray ion source
Instrument type: LC-ESI-QTOF
Ms type: MS2
Ion mode: POSITIVE
Collision energy: 45V
Column name: Acquity UPLC Peptide BEH C18 column (50*2.1 mm; 1.7 um; 130A)(Waters Co.,Milford, MA, USA)
Retention time: 13.96299
Precursor type: [M+NH4]+
Precursor m/z: 780.7139
Intensity: 402
m/z	relative intensity
83.088	105
85.105	51
95.086	77
109.104	77
123.119	77
151.14	51
211.207	51
226.985	51
237.22	51
239.243	77
243.023	59
254.042	51
269.003	51
292.961	51
313.271	77
338.972	51
350.929	51
481.433	351
493.344	59
495.431	258
507.427	447
507.443	421
509.337	103
509.461	899
521.456	999
523.468	85
535.449	196
535.469	552
537.49	188
549.482	364
563.501	284
577.489	51
577.542	206
780.545	51
780.702	77
