Mass spectrum: TG 48:3; LC-ESI-QTOF; MS2
Name: TG 48:3
Class:  TAG
Formula: C51H92O6
Exact mass: 801.2909999999999
SMILES: CCCCCCCCCCCCCC(=O)OCC(COC(=O)CCCCCCCC\C=C/C=C\CCCCC)OC(=O)CCCCC\C=C/CCCCCCCC
InChI: InChI=1S/C51H92O6/c1-4-7-10-13-16-19-22-24-25-27-29-32-35-38-41-44-50(53)56-47-48(46-55-49(52)43-40-37-34-31-28-21-18-15-12-9-6-3)57-51(54)45-42-39-36-33-30-26-23-20-17-14-11-8-5-2/h16,19,22,24,26,30,48H,4-15,17-18,20-21,23,25,27-29,31-47H2,1-3H3/b19-16-,24-22-,30-26-
Instrument: AB Sciex TripleTOF 5600+ system (Q-TOF) equipped with a DuoSpray ion source
Instrument type: LC-ESI-QTOF
Ms type: MS2
Ion mode: POSITIVE
Collision energy: 45V
Column name: Acquity UPLC Peptide BEH C18 column (50*2.1 mm; 1.7 um; 130A)(Waters Co.,Milford, MA, USA)
Retention time: 13.92535
Precursor type: [M+NH4]+
Precursor m/z: 818.7202
Intensity: 1832
m/z	relative intensity
81.07	86
83.086	39
95.085	39
109.1	27
135.112	19
137.128	20
211.206	43
226.986	19
237.224	66
244.95	23
245.224	38
263.237	91
265.252	24
269.003	43
285.239	35
292.96	11
311.252	19
313.27	20
319.263	31
326.94	7
337.276	27
339.29	11
432.997	15
519.437	122
519.465	51
521.424	92
521.433	165
521.453	999
521.483	125
522.456	23
545.439	147
545.451	99
545.464	218
547.472	992
548.477	19
549.479	91
549.511	35
573.486	745
575.491	222
575.503	87
575.513	154
575.538	43
601.511	67
601.536	39
783.679	7
801.68	31
801.717	27
818.577	16
818.707	114
818.737	87
818.768	23
822.817	7
