Mass spectrum: TG 62:11; LC-ESI-QTOF; MS2
Name: TG 62:11
Class:  TAG
Formula: C65H104O6
Exact mass: 981.5409999999999
SMILES: CCCCCC\C=C/CCCCCCCCCC(=O)OCC(COC(=O)CCCCC\C=C/C\C=C/C\C=C/C\C=C/C\C=C/CC)OC(=O)CCCCC\C=C/C\C=C/C\C=C/C\C=C/C\C=C/CC
InChI: InChI=1S/C65H104O6/c1-4-7-10-13-16-19-22-25-28-30-32-34-37-40-43-46-49-52-55-58-64(67)70-61-62(60-69-63(66)57-54-51-48-45-42-39-36-27-24-21-18-15-12-9-6-3)71-65(68)59-56-53-50-47-44-41-38-35-33-31-29-26-23-20-17-14-11-8-5-2/h7-8,10-11,16-17,19-21,24-26,28-29,32-35,40-41,43-44,62H,4-6,9,12-15,18,22-23,27,30-31,36-39,42,45-61H2,1-3H3/b10-7-,11-8-,19-16-,20-17-,24-21-,28-25-,29-26-,34-32-,35-33-,43-40-,44-41-
Instrument: AB Sciex TripleTOF 5600+ system (Q-TOF) equipped with a DuoSpray ion source
Instrument type: LC-ESI-QTOF
Ms type: MS2
Ion mode: POSITIVE
Collision energy: 45V
Column name: Acquity UPLC Peptide BEH C18 column (50*2.1 mm; 1.7 um; 130A)(Waters Co.,Milford, MA, USA)
Retention time: 14.32777
Precursor type: [M+NH4]+
Precursor m/z: 998.8193
Intensity: 984
m/z	relative intensity
79.054	16
81.07	24
91.054	24
93.07	20
95.085	31
105.069	14
109.101	17
117.073	13
119.084	23
131.085	27
133.102	18
145.103	21
157.1	14
159.115	19
161.132	16
167.083	13
169.101	20
171.118	19
172.119	13
173.132	21
183.115	27
185.134	23
187.145	17
197.131	17
199.145	15
201.164	29
209.135	16
211.145	21
213.164	16
214.167	19
215.176	15
223.146	23
224.154	14
225.155	14
227.178	29
228.188	12
267.274	13
268.273	13
269.227	19
283.246	5
292.203	4
293.211	10
293.221	18
293.235	35
294.229	54
295.252	5
297.261	4
306.216	4
309.216	8
310.219	6
311.225	24
311.241	63
312.244	59
313.265	7
335.235	4
337.279	9
339.296	15
341.305	83
342.302	73
342.316	47
343.309	9
367.265	10
368.27	6
369.287	7
383.255	4
385.256	5
385.281	10
386.275	10
386.295	14
387.299	2
389.303	5
391.315	4
395.314	11
396.312	14
396.337	4
573.477	35
573.505	16
577.497	5
578.488	5
597.51	4
613.496	4
621.472	3
623.497	7
640.478	4
647.486	5
647.516	7
649.495	15
649.514	13
649.535	17
649.564	5
651.479	8
651.506	62
651.539	277
652.513	183
652.545	991
653.513	207
653.545	999
654.56	20
655.554	4
655.606	3
671.498	5
671.566	5
673.518	8
679.554	5
695.484	10
695.519	10
695.544	12
696.465	19
696.49	69
696.515	167
697.483	18
697.504	96
697.523	45
699.501	10
699.544	15
701.537	10
701.571	5
725.582	6
727.529	3
727.58	8
831.635	3
878.73	8
903.745	5
904.741	8
916.738	8
916.793	4
940.731	3
963.761	10
963.811	6
981.765	47
981.786	35
981.808	51
998.66	3
998.717	14
998.808	984
999.833	8
