Mass spectrum: TG 54:4; LC-ESI-QTOF; MS2
Name: TG 54:4
Class:  TAG
Formula: C57H102O6
Exact mass: 883.437
SMILES: CCCCCCCCCCCCCCCCCC(=O)OCC(COC(=O)CCCCCCCC\C=C/C=C\CCCCC)OC(=O)CCCCCCCC\C=C/C=C\CCCCC
InChI: InChI=1S/C57H102O6/c1-4-7-10-13-16-19-22-25-28-31-34-37-40-43-46-49-55(58)61-52-54(63-57(60)51-48-45-42-39-36-33-30-27-24-21-18-15-12-9-6-3)53-62-56(59)50-47-44-41-38-35-32-29-26-23-20-17-14-11-8-5-2/h16,18-19,21-22,24-25,27,54H,4-15,17,20,23,26,28-53H2,1-3H3/b19-16-,21-18-,25-22-,27-24-
Instrument: AB Sciex TripleTOF 5600+ system (Q-TOF) equipped with a DuoSpray ion source
Instrument type: LC-ESI-QTOF
Ms type: MS2
Ion mode: POSITIVE
Collision energy: 45V
Column name: Acquity UPLC Peptide BEH C18 column (50*2.1 mm; 1.7 um; 130A)(Waters Co.,Milford, MA, USA)
Retention time: 14.55091
Precursor type: [M+NH4]+
Precursor m/z: 900.8009
Intensity: 146958
m/z	relative intensity
71.049	1
71.086	6
77.039	4
79.055	19
81.07	82
83.048	0
83.086	44
85.065	4
85.102	7
91.055	8
93.07	28
94.797	0
95.086	87
97.065	5
97.102	38
99.081	7
99.116	1
101.097	1
105.07	7
107.086	25
109.066	0
109.102	66
111.08	6
111.118	23
113.097	5
113.133	0
115.113	0
117.071	0
119.087	8
121.102	52
123.083	0
123.118	41
125.097	3
125.133	5
127.113	6
129.129	0
131.086	1
133.103	12
135.118	54
137.095	0
137.134	22
139.113	5
139.15	1
141.129	4
143.145	0
145.106	1
147.119	9
149.134	34
151.15	16
153.129	11
153.168	0
155.145	3
159.12	1
159.132	0
161.134	19
163.122	0
163.15	32
165.12	0
165.132	1
165.166	19
167.147	6
167.183	0
169.159	1
171.117	0
173.127	0
173.138	2
175.15	21
177.128	1
177.166	13
179.146	2
179.182	6
181.123	0
181.162	3
183.179	1
185.127	0
185.136	0
185.155	0
187.15	1
189.168	10
191.182	8
193.162	4
193.196	1
195.138	0
195.151	0
195.174	1
195.185	0
199.151	0
201.166	1
203.146	0
203.182	4
205.163	0
205.197	4
205.216	0
207.179	3
207.219	0
209.158	1
209.191	1
213.164	0
215.182	0
217.196	1
217.211	1
219.215	3
221.153	0
221.167	0
221.195	2
221.221	0
221.234	0
223.173	1
223.216	0
227.186	0
231.212	0
233.225	0
235.176	1
235.209	0
235.246	0
237.19	1
237.223	1
237.241	0
239.242	3
241.201	0
243.214	1
245.23	57
246.232	0
247.246	65
247.268	7
249.189	1
249.202	0
249.228	0
249.259	1
251.21	0
255.204	0
257.23	0
259.247	0
261.225	4
261.239	1
261.258	1
263.202	0
263.241	153
264.249	1
264.426	0
265.219	0
265.256	206
266.259	1
267.274	3
271.245	0
271.257	0
273.225	0
273.259	0
273.275	0
275.199	0
275.239	0
275.259	0
275.274	0
275.289	0
277.224	1
277.244	0
277.26	0
279.219	0
279.238	1
279.269	0
280.268	0
281.245	0
282.282	2
282.305	0
283.232	0
283.252	0
283.268	0
284.299	0
285.262	0
285.274	0
287.239	0
289.256	3
291.238	0
291.269	2
291.288	0
293.251	0
293.285	1
293.308	0
297.267	0
299.242	0
301.221	1
301.247	0
301.25	1
301.265	1
301.291	0
303.227	0
303.244	0
303.283	0
305.253	0
305.285	0
307.268	0
307.296	0
311.254	0
311.27	0
311.285	0
313.28	2
313.3	0
317.25	1
317.269	0
317.299	0
317.32	0
319.263	26
319.277	17
319.296	5
320.278	0
321.23	0
321.279	13
323.225	0
323.291	0
323.306	1
325.275	0
327.297	0
329.315	0
331.257	0
331.274	0
331.305	0
333.277	0
335.265	3
335.296	0
337.278	44
337.313	3
338.238	0
338.287	0
339.295	139
339.326	10
340.287	0
340.304	1
341.307	6
341.333	1
343.341	0
345.281	0
345.311	0
345.347	0
347.292	0
347.307	0
347.337	0
349.245	0
351.252	0
351.277	0
351.304	0
353.297	0
353.316	0
355.338	0
357.299	0
357.353	0
359.298	0
359.328	0
361.307	0
363.247	0
363.273	0
363.298	0
363.321	0
365.27	0
365.29	0
365.301	0
365.315	0
365.337	0
367.317	0
367.338	0
371.372	0
373.312	0
373.354	0
375.325	0
375.365	0
377.263	0
377.287	0
377.303	0
377.369	0
379.291	0
379.328	0
381.348	0
385.316	0
385.387	0
387.332	0
387.386	0
389.365	0
389.385	0
391.279	0
391.292	0
391.323	0
391.361	0
393.294	0
393.311	0
393.336	0
397.372	0
399.392	0
401.338	0
401.37	0
401.385	0
403.368	0
403.404	0
405.297	0
405.313	0
405.366	0
405.382	0
407.316	0
413.405	0
415.355	0
415.376	0
415.389	0
415.402	0
415.443	0
417.419	0
419.325	0
419.347	0
419.379	0
419.403	0
421.333	0
427.399	0
429.371	0
429.413	0
429.442	0
431.38	0
431.412	0
433.334	0
433.368	0
433.401	0
433.428	0
435.344	0
435.396	0
443.392	0
443.425	0
445.398	0
445.425	0
447.355	0
447.411	0
447.436	0
449.386	0
459.442	0
461.354	0
461.372	0
461.395	0
461.433	0
463.381	0
463.411	0
475.384	0
475.399	0
477.402	1
477.434	0
489.409	0
491.403	1
491.421	1
491.463	0
503.408	1
503.43	0
505.448	0
509.478	2
509.515	0
517.419	0
519.438	0
523.845	0
523.885	0
525.461	0
525.484	1
527.47	3
527.49	16
527.52	3
527.54	1
529.5	3
529.519	0
529.542	0
541.409	0
543.51	0
545.496	7
545.522	4
547.465	0
561.497	0
573.498	32
573.532	4
573.554	3
575.509	54
575.541	5
575.566	4
577.528	30
577.555	4
577.593	1
578.512	3
583.509	1
587.507	4
587.553	0
589.51	0
589.538	2
599.513	159
599.562	24
599.658	12
599.698	2
600.525	3
600.591	0
601.419	0
601.525	999
601.573	54
601.59	40
602.536	111
602.765	0
603.122	0
603.364	0
603.405	0
603.539	812
603.586	58
603.606	30
604.497	0
604.552	55
604.626	3
605.536	6
605.599	2
615.538	3
615.573	0
617.52	1
617.544	2
617.562	2
617.596	1
619.513	1
619.539	3
619.569	0
627.545	43
627.594	4
627.617	2
629.558	42
629.597	4
629.616	3
631.572	1
631.603	1
645.545	1
659.532	0
671.617	0
673.531	0
673.562	0
673.585	0
673.611	0
673.64	0
675.545	0
675.569	0
675.584	0
675.595	0
675.625	0
679.663	0
685.594	0
685.636	0
687.535	0
687.574	0
687.614	0
687.659	0
689.577	0
689.596	0
689.633	0
699.621	0
699.665	0
701.574	0
701.593	0
701.617	0
701.632	0
701.669	0
703.605	0
703.646	0
713.646	0
713.674	0
713.717	0
715.602	0
717.607	0
717.665	0
725.622	0
727.645	0
727.668	0
727.689	0
729.577	0
729.616	0
729.66	0
731.665	0
739.677	0
741.692	0
743.606	0
743.63	0
743.649	0
743.703	0
745.627	0
745.656	0
753.636	0
753.688	0
755.723	0
757.641	0
757.681	0
757.751	0
759.632	0
759.674	0
767.682	0
769.711	0
771.635	0
771.654	0
771.68	0
771.704	0
771.724	0
771.747	0
771.78	0
773.685	0
781.712	0
785.65	0
785.681	0
785.706	0
785.741	1
785.815	0
799.665	0
799.695	0
799.717	0
799.743	0
799.766	0
799.807	0
809.732	0
809.807	0
813.718	0
827.727	0
847.766	0
858.754	0
865.777	33
865.829	4
865.872	2
865.915	0
866.779	0
866.808	0
866.833	0
880.992	0
881.049	0
881.089	0
881.916	0
883.711	0
883.785	175
883.873	32
884.791	3
884.853	0
884.896	0
897.907	0
897.939	0
897.99	1
898.034	0
898.127	0
899.862	0
900.616	0
900.665	0
900.738	0
900.814	199
900.909	20
901.807	9
901.836	3
901.853	2
901.888	0
901.926	0
901.962	0
