Mass spectrum: TG 53:2; LC-ESI-QTOF; MS2
Name: TG 53:2
Class:  TAG
Formula: C56H104O6
Exact mass: 873.442
SMILES: CCCCCCCCCCCCCCCC(=O)OCC(COC(=O)CCCCCCC\C=C/CCCCCCCCC)OC(=O)CCCCCCCCC\C=C/CCCCCC
InChI: InChI=1S/C56H104O6/c1-4-7-10-13-16-19-22-25-27-29-31-34-37-40-43-46-49-55(58)61-52-53(51-60-54(57)48-45-42-39-36-33-30-24-21-18-15-12-9-6-3)62-56(59)50-47-44-41-38-35-32-28-26-23-20-17-14-11-8-5-2/h20,23,27,29,53H,4-19,21-22,24-26,28,30-52H2,1-3H3/b23-20-,29-27-
Instrument: AB Sciex TripleTOF 5600+ system (Q-TOF) equipped with a DuoSpray ion source
Instrument type: LC-ESI-QTOF
Ms type: MS2
Ion mode: POSITIVE
Collision energy: 45V
Column name: Acquity UPLC Peptide BEH C18 column (50*2.1 mm; 1.7 um; 130A)(Waters Co.,Milford, MA, USA)
Retention time: 14.96707
Precursor type: [M+NH4]+
Precursor m/z: 890.816
Intensity: 5274
m/z	relative intensity
71.087	5
81.069	21
83.085	21
85.101	7
95.086	23
97.099	13
107.086	8
109.099	15
111.117	12
121.102	11
123.114	11
135.117	13
137.136	8
149.135	6
151.148	7
165.162	7
239.24	11
247.24	15
251.232	8
261.267	6
263.24	10
265.254	61
279.266	7
279.278	7
281.285	3
313.278	10
321.285	3
327.295	3
339.286	13
341.312	2
353.308	5
355.32	3
563.505	31
565.522	8
566.527	9
575.504	114
575.54	10
577.518	256
578.523	10
589.5	17
589.517	71
589.539	23
589.698	6
591.534	999
592.539	18
593.531	20
593.556	57
593.584	9
603.518	102
603.541	294
605.549	48
605.571	20
617.556	347
619.563	28
631.57	19
855.754	3
865.757	6
865.815	4
873.769	13
873.836	3
890.745	9
890.784	19
890.818	127
890.897	4
