Mass spectrum: TG 56:6; LC-ESI-QTOF; MS2
Name: TG 56:6
Class:  TAG
Formula: C59H102O6
Exact mass: 907.4590000000001
SMILES: CCCCCCCCCCCCCCCC(=O)OCC(COC(=O)CCCCC\C=C/C\C=C/C\C=C/C\C=C/C\C=C/CC)OC(=O)CCCCCCCCC\C=C/CCCCCC
InChI: InChI=1S/C59H102O6/c1-4-7-10-13-16-19-22-25-27-28-29-30-32-34-37-40-43-46-49-52-58(61)64-55-56(54-63-57(60)51-48-45-42-39-36-33-24-21-18-15-12-9-6-3)65-59(62)53-50-47-44-41-38-35-31-26-23-20-17-14-11-8-5-2/h7,10,16,19-20,23,25,27,29-30,34,37,56H,4-6,8-9,11-15,17-18,21-22,24,26,28,31-33,35-36,38-55H2,1-3H3/b10-7-,19-16-,23-20-,27-25-,30-29-,37-34-
Instrument: AB Sciex TripleTOF 5600+ system (Q-TOF) equipped with a DuoSpray ion source
Instrument type: LC-ESI-QTOF
Ms type: MS2
Ion mode: POSITIVE
Collision energy: 45V
Column name: Acquity UPLC Peptide BEH C18 column (50*2.1 mm; 1.7 um; 130A)(Waters Co.,Milford, MA, USA)
Retention time: 14.51636
Precursor type: [M+NH4]+
Precursor m/z: 924.7988
Intensity: 3936
m/z	relative intensity
81.071	65
83.086	36
91.052	28
93.068	28
95.083	50
107.085	31
117.067	28
119.086	53
121.1	45
131.084	28
133.1	31
147.116	30
149.135	33
159.115	36
161.133	44
171.113	33
173.131	51
175.151	28
177.162	31
185.134	51
187.141	28
187.153	36
189.165	39
199.154	28
201.163	68
203.18	173
215.18	45
239.237	56
245.228	33
247.237	39
259.244	28
265.243	36
265.256	62
268.996	62
269.228	148
271.241	42
285.222	13
287.227	28
287.238	113
287.251	45
289.246	30
289.264	19
295.233	19
295.252	59
297.258	48
313.234	22
313.249	73
313.263	124
313.296	22
315.275	42
337.258	28
337.287	36
339.291	273
341.3	39
351.001	13
369.275	22
432.996	31
433.018	27
515.008	28
551.493	22
575.501	281
575.533	42
577.516	679
577.552	34
578.533	51
579.53	42
597.477	22
599.495	30
601.489	28
601.514	256
601.55	45
602.524	19
603.526	999
603.549	594
604.506	19
604.544	47
623.487	39
623.513	82
625.501	632
625.527	789
626.542	20
627.506	54
627.528	334
627.546	114
629.557	48
651.53	853
651.59	19
652.546	22
653.554	30
679.023	8
679.567	8
761.037	9
767.644	5
769.645	8
783.666	5
797.641	5
842.699	30
842.747	28
843.005	6
843.769	5
853.716	8
855.709	11
856.742	8
889.736	28
889.792	16
902.788	11
907.74	91
907.762	284
907.802	122
907.821	34
915.731	22
915.796	19
924.693	19
924.751	112
924.797	793
924.87	34
925.808	45
