Mass spectrum: TG 56:5; LC-ESI-QTOF; MS2
Name: TG 56:5
Class:  TAG
Formula: C59H104O6
Exact mass: 909.475
SMILES: CCCCCCCC\C=C/C\C=C/C\C=C/CCCC(=O)OCC(COC(=O)CCCCCCCCC\C=C/CCCCCC)OC(=O)CCCCCCCCC\C=C/CCCCCC
InChI: InChI=1S/C59H104O6/c1-4-7-10-13-16-19-22-25-28-29-32-34-37-40-43-46-49-52-58(61)64-55-56(65-59(62)53-50-47-44-41-38-35-31-27-24-21-18-15-12-9-6-3)54-63-57(60)51-48-45-42-39-36-33-30-26-23-20-17-14-11-8-5-2/h20-21,23-25,28,32,34,40,43,56H,4-19,22,26-27,29-31,33,35-39,41-42,44-55H2,1-3H3/b23-20-,24-21-,28-25-,34-32-,43-40-
Instrument: AB Sciex TripleTOF 5600+ system (Q-TOF) equipped with a DuoSpray ion source
Instrument type: LC-ESI-QTOF
Ms type: MS2
Ion mode: POSITIVE
Collision energy: 45V
Column name: Acquity UPLC Peptide BEH C18 column (50*2.1 mm; 1.7 um; 130A)(Waters Co.,Milford, MA, USA)
Retention time: 14.68567
Precursor type: [M+NH4]+
Precursor m/z: 926.8145
Intensity: 4550
m/z	relative intensity
71.084	7
79.054	8
81.069	28
83.084	12
85.1	7
91.053	13
93.068	9
95.085	36
97.1	9
105.069	12
107.083	7
109.1	18
111.115	6
117.068	6
119.081	6
121.1	19
123.116	6
131.085	6
133.1	9
135.116	14
137.132	7
145.101	8
147.116	11
159.114	9
161.132	6
163.148	8
165.165	6
171.117	11
173.133	6
175.149	10
177.162	11
185.134	9
187.15	6
189.16	14
191.181	8
199.145	5
201.165	12
203.179	43
205.194	7
213.162	7
215.178	16
217.194	40
221.226	6
229.191	7
231.209	14
239.23	16
239.241	24
247.235	8
247.247	9
265.252	47
271.239	2
287.236	6
287.272	6
289.236	2
289.262	3
295.24	5
297.257	94
299.276	3
311.249	5
313.242	2
313.273	72
315.269	179
316.274	4
317.281	3
321.294	2
331.271	3
337.273	4
339.287	57
339.307	16
341.3	4
353.282	2
363.282	2
367.292	2
371.284	12
371.295	37
387.269	2
387.291	7
389.3	4
389.322	2
393.303	3
489.393	4
491.407	4
501.398	4
515.424	5
529.427	3
535.483	4
549.49	7
551.49	3
551.508	11
553.486	5
561.493	7
573.466	6
573.491	12
575.51	8
575.528	3
577.518	999
578.498	6
578.523	47
580.56	4
581.539	4
597.501	6
599.488	4
599.526	3
601.518	4
603.532	37
605.554	19
625.5	8
625.528	26
627.481	3
627.534	647
628.515	13
628.538	14
628.567	3
629.546	15
629.567	13
631.56	15
643.521	5
645.542	6
651.524	3
653.551	705
654.524	7
654.554	19
654.577	16
669.547	5
671.555	8
681.566	1
753.642	1
783.626	1
797.655	2
797.702	1
829.678	10
829.723	69
829.764	14
830.721	1
891.751	12
891.781	19
891.817	5
909.737	11
909.79	251
909.821	46
910.768	5
910.787	3
926.802	249
926.834	216
926.911	2
927.788	8
927.821	15
927.849	8
