Mass spectrum: TG 54:7; LC-ESI-QTOF; MS2
Name: TG 54:7
Class:  TAG
Formula: C57H96O6
Exact mass: 877.389
SMILES: CCCCC\C=C/C=C\CCCCCCCCC(=O)OCC(COC(=O)CCCCCCCCC\C=C/C=C\C=C/CC)OC(=O)CCCCCCCC\C=C/C=C\CCCCC
InChI: InChI=1S/C57H96O6/c1-4-7-10-13-16-19-22-25-28-31-34-37-40-43-46-49-55(58)61-52-54(63-57(60)51-48-45-42-39-36-33-30-27-24-21-18-15-12-9-6-3)53-62-56(59)50-47-44-41-38-35-32-29-26-23-20-17-14-11-8-5-2/h7,10,13,16-24,26-27,54H,4-6,8-9,11-12,14-15,25,28-53H2,1-3H3/b10-7-,16-13-,20-17-,21-18-,22-19-,26-23-,27-24-
Instrument: AB Sciex TripleTOF 5600+ system (Q-TOF) equipped with a DuoSpray ion source
Instrument type: LC-ESI-QTOF
Ms type: MS2
Ion mode: POSITIVE
Collision energy: 45V
Column name: Acquity UPLC Peptide BEH C18 column (50*2.1 mm; 1.7 um; 130A)(Waters Co.,Milford, MA, USA)
Retention time: 13.89348
Precursor type: [M+NH4]+
Precursor m/z: 894.7507
Intensity: 329777
m/z	relative intensity
71.049	1
71.085	1
77.038	5
79.054	25
81.069	66
83.049	2
83.085	14
85.064	3
85.101	1
91.054	18
93.069	36
95.05	1
95.085	63
97.064	4
97.1	11
99.079	5
105.069	18
107.085	28
109.064	0
109.1	41
111.08	4
111.116	3
113.095	3
117.069	4
119.085	19
121.101	44
123.079	1
123.116	28
125.094	3
127.111	2
129.07	0
131.084	9
133.1	25
135.116	35
137.095	2
137.131	15
139.112	2
141.127	1
143.083	1
145.101	9
147.116	22
149.131	26
151.112	1
151.147	7
153.127	5
155.143	0
157.101	1
159.117	17
161.132	35
163.111	1
163.148	31
165.125	2
165.133	0
165.162	4
167.142	2
169.095	1
171.116	4
173.131	21
175.11	0
175.147	33
177.126	1
177.162	13
179.142	3
179.179	2
181.158	2
183.114	1
185.132	4
187.146	13
189.129	1
189.163	13
191.141	1
191.179	4
193.158	6
193.194	1
195.14	0
195.175	0
197.131	1
199.148	3
201.163	8
203.142	0
203.178	6
205.158	2
205.186	0
205.197	1
207.176	2
209.131	0
209.156	0
211.147	0
213.164	2
215.178	4
217.158	0
217.193	3
219.172	1
219.211	4
221.15	1
221.181	1
221.193	0
223.171	0
225.162	1
227.176	1
229.192	1
231.174	1
231.21	2
233.186	1
233.227	6
235.161	0
235.171	2
235.201	0
235.24	0
237.18	0
237.19	0
237.222	1
239.181	1
241.194	7
243.211	42
245.184	0
245.196	0
245.226	42
247.207	1
247.233	1
247.245	2
249.18	2
253.192	0
255.211	1
257.191	1
257.222	1
259.205	22
259.24	0
261.22	165
263.236	126
265.24	1
265.252	4
267.205	0
269.225	1
271.204	1
271.246	1
273.18	0
273.222	1
273.255	0
275.192	0
275.203	1
275.234	2
276.209	0
277.217	3
277.249	0
279.23	2
280.262	0
281.216	0
281.232	0
283.231	0
283.242	1
285.218	1
285.259	1
287.2	0
287.233	2
287.246	1
287.274	0
289.205	0
289.218	0
289.252	2
291.194	0
291.23	1
293.244	0
295.233	0
297.215	0
297.234	0
297.261	0
299.217	0
299.238	6
299.272	0
301.21	0
301.247	3
301.263	1
303.228	1
303.265	0
303.282	0
305.214	0
305.246	0
305.276	0
307.225	0
307.258	0
309.241	0
311.231	0
311.259	2
313.246	1
313.261	0
315.216	1
315.233	5
315.267	1
315.281	0
317.247	57
317.29	1
319.262	26
321.242	0
321.269	0
321.28	1
323.23	0
323.253	0
323.27	0
325.247	0
325.268	0
325.284	0
327.264	1
329.247	0
329.271	0
329.286	0
331.226	0
331.261	1
331.297	0
331.31	0
333.241	6
335.256	35
336.224	0
337.273	111
339.288	12
341.266	0
341.284	1
343.258	1
343.298	1
345.274	1
345.317	0
349.278	0
351.256	0
351.283	0
353.276	0
353.317	0
355.258	0
355.291	1
357.275	0
357.316	0
359.286	1
359.327	1
361.283	0
361.305	0
363.25	0
363.291	0
365.263	1
365.309	0
367.301	0
369.306	0
369.318	0
371.296	0
371.328	1
371.345	0
373.309	1
373.344	0
375.283	0
377.256	0
377.281	0
379.295	0
379.319	0
381.34	0
383.323	0
383.34	0
385.312	0
385.345	1
385.363	0
387.322	1
387.362	0
389.267	0
389.32	0
391.277	1
391.298	0
393.303	0
393.317	0
395.33	0
397.297	0
397.315	0
397.337	0
397.357	0
399.325	0
399.356	0
399.372	0
401.334	1
401.351	0
403.272	0
403.348	0
407.319	0
409.347	0
411.313	0
411.329	0
411.347	0
411.365	0
411.379	0
413.338	1
413.364	0
413.38	0
415.356	1
417.292	0
417.321	0
417.353	0
417.377	0
419.315	0
419.361	0
421.324	0
421.351	0
423.322	0
423.358	0
425.339	0
425.372	0
427.354	1
427.375	0
429.324	0
429.36	0
429.379	0
431.312	0
431.346	0
431.363	0
433.372	0
435.355	0
437.33	0
439.353	0
439.373	0
439.389	0
441.367	1
443.314	0
443.381	0
445.318	0
445.335	0
445.363	0
447.338	0
447.358	0
449.339	0
449.368	0
451.357	0
453.363	0
453.378	0
455.384	0
457.395	0
459.343	0
459.383	0
461.365	1
463.353	0
463.391	0
467.391	0
471.348	0
473.355	1
473.37	1
475.368	1
485.36	1
487.376	2
489.373	1
489.394	2
489.415	0
499.377	1
499.402	0
501.382	2
501.412	0
503.408	2
503.439	0
505.394	0
505.412	0
505.438	7
505.461	1
507.455	2
513.39	2
515.401	1
515.416	1
517.409	0
517.429	0
521.414	1
521.438	2
523.448	33
525.448	2
525.466	5
525.484	1
527.408	2
529.412	1
529.432	1
531.428	0
531.452	0
539.438	1
541.416	0
541.458	15
543.414	0
543.442	1
543.47	7
547.45	0
547.468	1
547.486	1
548.469	2
549.483	1
553.419	0
555.436	1
557.421	0
557.442	0
557.465	1
559.47	2
561.484	0
567.446	0
569.456	1
571.451	3
571.476	4
573.443	0
573.484	15
579.455	0
579.475	2
581.467	0
583.457	0
583.479	1
585.464	0
585.488	1
587.503	1
595.47	101
595.622	3
595.649	0
596.471	1
597.366	1
597.484	999
598.276	0
598.489	16
598.513	2
599.342	0
599.387	0
599.497	933
600.493	5
600.513	6
601.514	41
603.536	0
611.48	1
611.498	1
611.516	1
613.464	4
613.49	4
613.516	1
615.494	19
617.495	1
617.521	2
623.504	16
625.508	2
625.535	1
637.536	0
639.519	1
649.513	0
673.538	0
675.54	0
679.546	0
679.582	0
683.522	0
685.536	0
693.566	1
693.592	0
695.524	0
697.518	0
697.556	0
707.581	0
707.607	0
709.519	0
709.555	0
711.552	0
711.584	0
713.571	0
721.608	0
723.539	0
723.573	0
725.537	0
725.583	0
727.585	0
737.583	0
739.584	0
747.637	0
749.615	0
751.588	0
751.617	1
753.589	0
753.61	1
755.614	0
761.596	0
765.573	0
765.598	2
765.631	3
765.669	0
767.586	0
767.606	1
767.631	1
767.662	0
769.611	0
779.573	0
779.607	2
779.633	1
779.651	1
779.683	0
781.624	1
785.694	0
789.643	0
793.627	2
793.649	1
795.638	1
795.677	0
803.649	0
803.699	0
807.623	1
807.644	2
807.666	1
807.689	0
821.63	0
821.696	0
835.662	0
835.696	0
841.684	0
841.72	0
859.713	47
860.714	0
861.664	1
861.693	8
861.725	1
874.934	0
874.969	0
875.018	0
876.655	0
877.454	0
877.563	0
877.722	219
878.708	1
878.748	0
891.942	0
891.973	0
893.723	0
894.565	0
894.678	0
894.748	129
894.831	0
895.723	0
895.757	2
895.809	0
