Mass spectrum: TG 49:4; LC-ESI-QTOF; MS2
Name: TG 49:4
Class:  TAG
Formula: C52H92O6
Exact mass: 813.302
SMILES: CCCCCCCCCCCCC(=O)OCC(COC(=O)CCCCCCCC\C=C/C=C\CCCCC)OC(=O)CCCCCCCC\C=C/C=C\CCCCC
InChI: InChI=1S/C52H92O6/c1-4-7-10-13-16-19-22-24-26-28-30-33-36-39-42-45-51(54)57-48-49(47-56-50(53)44-41-38-35-32-21-18-15-12-9-6-3)58-52(55)46-43-40-37-34-31-29-27-25-23-20-17-14-11-8-5-2/h16-17,19-20,22-25,49H,4-15,18,21,26-48H2,1-3H3/b19-16-,20-17-,24-22-,25-23-
Instrument: AB Sciex TripleTOF 5600+ system (Q-TOF) equipped with a DuoSpray ion source
Instrument type: LC-ESI-QTOF
Ms type: MS2
Ion mode: POSITIVE
Collision energy: 45V
Column name: Acquity UPLC Peptide BEH C18 column (50*2.1 mm; 1.7 um; 130A)(Waters Co.,Milford, MA, USA)
Retention time: 13.82415
Precursor type: [M+NH4]+
Precursor m/z: 830.719
Intensity: 561
m/z	relative intensity
95.085	74
109.101	225
123.121	98
135.118	55
175.144	55
203.18	94
221.19	131
237.224	55
261.222	55
263.237	92
268.997	111
302.99	37
311.256	55
313.277	316
337.271	166
344.988	42
420.967	61
434.933	55
438.915	74
444.967	37
465.391	55
467.405	37
468.412	98
493.421	203
494.405	92
494.43	374
495.45	92
496.446	240
521.453	148
522.433	129
522.465	149
522.482	194
533.455	999
533.487	131
535.469	92
550.493	224
557.441	92
557.46	244
557.482	111
559.468	279
573.467	203
575.497	681
575.516	377
575.543	149
578.538	185
587.508	98
599.504	129
685.422	131
685.469	55
767.501	37
767.685	37
795.671	37
801.009	37
813.671	55
830.709	262
830.736	168
831.577	37
