Mass spectrum: TG 48:3; LC-ESI-QTOF; MS2
Name: TG 48:3
Class:  TAG
Formula: C51H92O6
Exact mass: 801.2909999999999
SMILES: CCCCCCCCCCCC(=O)OCC(COC(=O)CCCCCCCC\C=C/C=C\CCCCC)OC(=O)CCCCCCCCC\C=C/CCCCCC
InChI: InChI=1S/C51H92O6/c1-4-7-10-13-16-19-21-23-25-27-29-32-35-38-41-44-50(53)56-47-48(46-55-49(52)43-40-37-34-31-18-15-12-9-6-3)57-51(54)45-42-39-36-33-30-28-26-24-22-20-17-14-11-8-5-2/h16,19-23,48H,4-15,17-18,24-47H2,1-3H3/b19-16-,22-20-,23-21-
Instrument: AB Sciex TripleTOF 5600+ system (Q-TOF) equipped with a DuoSpray ion source
Instrument type: LC-ESI-QTOF
Ms type: MS2
Ion mode: POSITIVE
Collision energy: 45V
Column name: Acquity UPLC Peptide BEH C18 column (50*2.1 mm; 1.7 um; 130A)(Waters Co.,Milford, MA, USA)
Retention time: 13.91345
Precursor type: [M+NH4]+
Precursor m/z: 818.7224
Intensity: 16091
m/z	relative intensity
71.085	10
79.053	10
81.069	42
83.085	19
85.065	4
85.101	9
91.054	4
93.07	14
95.086	44
97.098	9
97.104	8
107.086	7
109.101	34
111.116	6
119.085	4
121.099	23
123.117	22
133.099	4
135.118	23
137.127	6
137.138	8
149.133	10
151.147	4
153.127	4
161.131	5
163.146	13
175.149	8
183.173	7
189.166	4
191.182	4
209.187	6
211.207	32
219.211	16
237.22	45
237.234	7
245.225	15
245.238	5
247.244	6
257.215	4
263.236	54
265.249	10
283.226	2
285.246	15
291.243	1
293.249	3
301.263	1
311.259	24
313.268	3
313.289	2
319.262	13
319.285	1
321.251	1
321.286	1
335.256	1
337.28	8
339.289	3
339.305	3
471.428	1
473.441	3
491.413	3
491.437	1
499.455	3
517.468	2
519.442	205
519.494	2
519.803	1
521.458	717
521.624	1
523.483	2
545.455	109
545.762	4
547.474	999
549.478	6
549.511	3
571.677	3
573.488	549
573.563	2
575.504	148
577.511	4
577.529	5
599.648	1
601.525	172
603.538	4
629.549	3
675.567	0
783.663	3
783.685	4
783.715	2
801.702	31
816.171	0
818.617	0
818.693	10
818.726	65
818.761	11
