Mass spectrum: TG 60:9; LC-ESI-QTOF; MS2
Name: TG 60:9
Class:  TAG
Formula: C63H104O6
Exact mass: 957.519
SMILES: CCCCCCCC\C=C/CCCCCCCCCC(=O)OC(COC(=O)CCCCCCCC\C=C/C=C\CCCCC)COC(=O)CC\C=C/C\C=C/C\C=C/C\C=C/C\C=C/C\C=C/CC
InChI: InChI=1S/C63H104O6/c1-4-7-10-13-16-19-22-25-28-30-31-33-35-38-41-44-47-50-53-56-62(65)68-59-60(58-67-61(64)55-52-49-46-43-40-37-34-27-24-21-18-15-12-9-6-3)69-63(66)57-54-51-48-45-42-39-36-32-29-26-23-20-17-14-11-8-5-2/h7,10,16,18-19,21,24-29,31,33,38,41,47,50,60H,4-6,8-9,11-15,17,20,22-23,30,32,34-37,39-40,42-46,48-49,51-59H2,1-3H3/b10-7-,19-16-,21-18-,27-24-,28-25-,29-26-,33-31-,41-38-,50-47-
Instrument: AB Sciex TripleTOF 5600+ system (Q-TOF) equipped with a DuoSpray ion source
Instrument type: LC-ESI-QTOF
Ms type: MS2
Ion mode: POSITIVE
Collision energy: 45V
Column name: Acquity UPLC Peptide BEH C18 column (50*2.1 mm; 1.7 um; 130A)(Waters Co.,Milford, MA, USA)
Retention time: 14.46621
Precursor type: [M+NH4]+
Precursor m/z: 974.8152
Intensity: 947
m/z	relative intensity
95.085	54
118.085	62
185.131	87
189.13	50
201.162	72
203.177	204
263.239	50
269.229	177
287.247	113
297.257	50
313.251	37
315.269	50
316.269	37
337.273	89
339.29	138
367.32	165
371.302	62
601.527	253
602.503	167
602.553	75
625.515	202
625.549	75
627.536	125
629.546	206
629.568	219
647.494	164
651.541	190
652.546	358
653.53	640
653.557	999
675.52	139
677.549	125
701.553	99
853.743	25
854.715	37
879.746	25
880.724	25
892.749	120
916.786	50
930.761	125
934.777	114
934.838	50
951.797	75
951.845	114
957.763	139
957.827	62
974.758	54
974.785	192
974.817	434
974.861	140
