Mass spectrum: TG 54:9; LC-ESI-QTOF; MS2
Name: TG 54:9
Class:  TAG
Formula: C57H92O6
Exact mass: 873.357
SMILES: CCCCCCCC\C=C/CCCCCC(=O)OCC(COC(=O)CCC\C=C/C\C=C/C\C=C/C\C=C/C\C=C/CC)OC(=O)CCCCCCCCC\C=C/C=C\C=C/CC
InChI: InChI=1S/C57H92O6/c1-4-7-10-13-16-19-22-25-27-28-30-32-35-38-41-44-47-50-56(59)62-53-54(52-61-55(58)49-46-43-40-37-34-31-24-21-18-15-12-9-6-3)63-57(60)51-48-45-42-39-36-33-29-26-23-20-17-14-11-8-5-2/h7-8,10-11,14,16-17,19-20,23,25,27,30-32,34,38,41,54H,4-6,9,12-13,15,18,21-22,24,26,28-29,33,35-37,39-40,42-53H2,1-3H3/b10-7-,11-8-,17-14-,19-16-,23-20-,27-25-,32-30-,34-31-,41-38-
Instrument: AB Sciex TripleTOF 5600+ system (Q-TOF) equipped with a DuoSpray ion source
Instrument type: LC-ESI-QTOF
Ms type: MS2
Ion mode: POSITIVE
Collision energy: 45V
Column name: Acquity UPLC Peptide BEH C18 column (50*2.1 mm; 1.7 um; 130A)(Waters Co.,Milford, MA, USA)
Retention time: 13.67575
Precursor type: [M+NH4]+
Precursor m/z: 890.7225
Intensity: 885
m/z	relative intensity
81.071	42
147.115	35
163.155	33
171.116	33
173.13	50
199.152	52
201.166	118
237.219	33
241.19	33
267.213	95
269.001	33
285.214	41
292.968	16
309.243	58
311.247	50
311.272	50
316.918	16
335.256	50
337.271	107
390.992	25
391.269	25
472.991	16
545.465	58
571.464	999
571.498	213
572.464	66
591.492	41
593.464	83
595.461	126
595.491	66
617.515	54
619.455	84
619.491	70
621.482	83
855.682	25
873.687	78
873.741	33
890.674	50
890.711	211
890.745	110
