Mass spectrum: TG 56:5; LC-ESI-QTOF; MS2
Name: TG 56:5
Class:  TAG
Formula: C59H104O6
Exact mass: 909.475
SMILES: CCCCCCCCCCCCCCCC(=O)OCC(COC(=O)CCCCCCCC\C=C/C\C=C/C\C=C/C\C=C/CC)OC(=O)CCCCCCCCC\C=C/CCCCCC
InChI: InChI=1S/C59H104O6/c1-4-7-10-13-16-19-22-25-27-28-29-30-32-34-37-40-43-46-49-52-58(61)64-55-56(54-63-57(60)51-48-45-42-39-36-33-24-21-18-15-12-9-6-3)65-59(62)53-50-47-44-41-38-35-31-26-23-20-17-14-11-8-5-2/h7,10,16,19-20,23,25,27,29-30,56H,4-6,8-9,11-15,17-18,21-22,24,26,28,31-55H2,1-3H3/b10-7-,19-16-,23-20-,27-25-,30-29-
Instrument: AB Sciex TripleTOF 5600+ system (Q-TOF) equipped with a DuoSpray ion source
Instrument type: LC-ESI-QTOF
Ms type: MS2
Ion mode: POSITIVE
Collision energy: 45V
Column name: Acquity UPLC Peptide BEH C18 column (50*2.1 mm; 1.7 um; 130A)(Waters Co.,Milford, MA, USA)
Retention time: 14.74373
Precursor type: [M+NH4]+
Precursor m/z: 926.8147
Intensity: 2578
m/z	relative intensity
81.07	24
83.084	13
91.053	13
93.07	11
95.084	30
97.1	12
105.07	11
109.098	16
119.086	11
121.102	10
123.118	14
131.084	9
135.119	12
163.149	12
171.116	9
173.134	10
175.147	13
177.163	11
185.131	10
186.996	27
187.147	9
189.165	14
201.162	9
203.179	37
205.195	10
213.168	10
215.177	13
217.195	43
239.239	23
247.238	13
265.253	46
269.0	37
273.248	4
287.237	7
287.273	6
297.24	13
297.257	60
313.274	69
314.288	4
315.267	147
315.303	5
321.279	4
331.261	4
337.278	5
339.284	42
339.299	35
367.301	5
371.297	38
387.295	12
389.299	10
433.009	4
489.39	6
515.012	5
553.493	10
561.502	5
575.504	13
577.516	999
578.5	10
578.52	25
578.546	7
579.501	8
581.554	7
597.494	11
599.504	13
601.529	8
603.523	13
603.556	16
605.539	12
605.569	25
625.508	18
625.533	13
627.533	549
628.521	7
628.553	14
629.53	10
629.551	24
631.565	14
643.538	6
645.546	10
653.55	653
654.547	14
654.567	13
671.578	5
680.927	2
779.68	1
825.689	3
856.758	1
891.759	12
891.776	21
891.822	11
909.71	3
909.775	153
909.805	98
909.86	5
910.75	4
910.81	10
926.667	6
926.748	13
926.814	399
926.856	58
927.81	20
