Mass spectrum: TG 46:2; LC-ESI-QTOF; MS2
Name: TG 46:2
Class:  TAG
Formula: C49H90O6
Exact mass: 775.253
SMILES: CCCCCCCCCCCCCCCC(=O)OC(COC(=O)CCCCCCCCCCC)COC(=O)CCCCCCCC\C=C/C=C\CCCCC
InChI: InChI=1S/C49H90O6/c1-4-7-10-13-16-19-21-23-24-26-27-30-33-36-39-42-48(51)54-45-46(44-53-47(50)41-38-35-32-29-18-15-12-9-6-3)55-49(52)43-40-37-34-31-28-25-22-20-17-14-11-8-5-2/h16,19,21,23,46H,4-15,17-18,20,22,24-45H2,1-3H3/b19-16-,23-21-
Instrument: AB Sciex TripleTOF 5600+ system (Q-TOF) equipped with a DuoSpray ion source
Instrument type: LC-ESI-QTOF
Ms type: MS2
Ion mode: POSITIVE
Collision energy: 45V
Column name: Acquity UPLC Peptide BEH C18 column (50*2.1 mm; 1.7 um; 130A)(Waters Co.,Milford, MA, USA)
Retention time: 13.88552
Precursor type: [M+NH4]+
Precursor m/z: 792.7038
Intensity: 87899
m/z	relative intensity
71.051	1
71.084	23
77.04	2
79.054	13
81.069	71
83.084	34
85.065	3
85.101	28
91.053	7
93.068	13
95.085	98
97.066	3
97.1	25
99.08	4
99.116	5
105.068	3
107.084	12
109.1	57
111.079	2
111.115	9
113.093	2
113.133	2
119.084	5
121.1	20
123.116	34
125.096	2
125.129	2
127.11	1
133.101	7
135.115	23
137.131	17
139.113	1
139.147	1
147.116	5
149.131	10
151.148	7
153.121	1
153.129	1
155.142	6
161.132	11
163.146	12
165.162	9
167.142	2
175.147	14
177.161	4
177.171	2
179.142	1
179.175	1
181.157	3
183.174	67
189.162	4
191.172	2
191.182	3
193.162	2
193.192	5
203.176	2
207.175	1
209.189	6
209.202	2
211.204	47
217.195	1
219.21	9
221.225	5
237.221	28
239.236	42
245.226	29
247.238	3
247.248	2
256.264	4
257.209	21
263.235	87
265.251	13
265.262	5
277.216	0
279.229	1
283.215	0
283.23	2
285.242	18
293.245	1
295.268	0
301.253	1
311.259	9
313.271	25
319.261	16
321.272	1
335.251	0
335.27	1
337.263	5
337.279	8
339.284	3
339.298	1
421.335	0
437.36	1
445.392	0
451.371	0
455.43	0
463.401	0
465.401	2
467.399	1
467.426	1
473.435	2
491.415	20
493.423	254
493.889	1
493.911	1
493.933	0
495.439	999
501.451	0
501.477	1
517.814	2
517.836	0
519.337	1
519.439	971
519.828	2
520.449	0
521.455	562
523.444	1
523.466	2
523.484	3
533.458	1
535.462	1
545.752	1
545.777	1
547.47	824
549.487	133
551.499	3
551.522	1
573.672	1
573.698	1
573.713	0
575.313	1
575.501	902
576.496	0
577.512	27
577.542	4
601.646	0
603.535	90
605.543	0
631.565	1
687.631	0
757.635	1
757.667	2
757.696	2
775.631	0
775.657	1
775.669	2
775.69	8
775.729	0
790.262	0
790.903	0
791.784	0
792.702	98
792.867	0
