Mass spectrum: PG 34:1; LC-ESI-QTOF; MS2
Name: PG 34:1
Class:  PG
Formula: C40H77O10P
Exact mass: 749.0219999999999
SMILES: CCCCCCCCCCCCCCCC(=O)OCC(COP(O)(=O)OCC(O)CO)OC(=O)CCCCCCC\C=C/CCCCCCCC
InChI: InChI=1S/C40H77O10P/c1-3-5-7-9-11-13-15-17-18-20-22-24-26-28-30-32-40(44)50-38(36-49-51(45,46)48-34-37(42)33-41)35-47-39(43)31-29-27-25-23-21-19-16-14-12-10-8-6-4-2/h17-18,37-38,41-42H,3-16,19-36H2,1-2H3,(H,45,46)/b18-17-
Instrument: AB Sciex TripleTOF 5600+ system (Q-TOF) equipped with a DuoSpray ion source
Instrument type: LC-ESI-QTOF
Ms type: MS2
Ion mode: POSITIVE
Collision energy: 45V
Column name: Acquity UPLC Peptide BEH C18 column (50*2.1 mm; 1.7 um; 130A)(Waters Co.,Milford, MA, USA)
Retention time: 8.634911
Precursor type: [M+NH4]+
Precursor m/z: 766.5583
Intensity: 26440
m/z	relative intensity
71.087	4
79.052	1
81.069	7
83.086	5
85.101	4
93.069	2
95.084	10
95.093	2
97.102	4
109.1	8
111.117	3
121.1	3
123.117	3
135.116	3
137.131	2
151.15	1
163.149	2
184.073	29
221.225	2
239.239	16
247.243	6
265.249	23
295.256	0
313.272	12
321.278	2
323.295	0
339.287	23
429.227	0
449.256	1
450.297	0
468.299	0
475.283	0
549.489	1
565.526	0
571.46	1
575.698	1
575.72	1
575.737	1
577.004	0
577.242	0
577.361	0
577.519	999
579.982	0
582.506	0
625.508	0
695.423	0
707.39	0
708.526	0
713.466	0
713.519	2
730.534	1
749.534	0
754.494	1
754.518	4
754.545	10
754.593	0
766.529	0
