Mass spectrum: C14-SAS (TENTATIVE); LC-ESI-ITFT; MS2; HCD60; [M-H]-
Name: C14-SAS (TENTATIVE)
Name: tetradecane-7-sulfonic acid
Formula: C14H30SO3
Exact mass: 278.1916
SMILES: O=S(=O)(O)C(CCCCCCC)CCCCCC
InChI: InChI=1S/C14H30O3S/c1-3-5-7-9-11-13-14(18(15,16)17)12-10-8-6-4-2/h14H,3-13H2,1-2H3,(H,15,16,17)
Instrument: LTQ Orbitrap XL Thermo Scientific
Instrument type: LC-ESI-ITFT
Ms type: MS2
Ion mode: NEGATIVE
Ionization: ESI
Fragmentation mode: HCD
Collision energy: 60 NCE
Base peak: 277.1836
Precursor m/z: 277.1836
Precursor type: [M-H]-
m/z	relative intensity
79.9576	239
80.9655	20
277.1836	999
