Mass spectrum: Galantamine; LC-ESI-ITFT; MS2; CE: 45%; R=15000; [M+H]+
Name: Galantamine
Formula: C17H21NO3
Exact mass: 287.1521
SMILES: CN1CCC23C=CC(CC2OC4=C(C=CC(=C34)C1)OC)O
InChI: InChI=1S/C17H21NO3/c1-18-8-7-17-6-5-12(19)9-14(17)21-16-13(20-2)4-3-11(10-18)15(16)17/h3-6,12,14,19H,7-10H2,1-2H3
Instrument: LTQ Orbitrap XL Thermo Scientific
Instrument type: LC-ESI-ITFT
Ms type: MS2
Ion mode: POSITIVE
Ionization: ESI
Fragmentation mode: CID
Collision energy: 45 % (nominal)
Resolution: 15000
Column name: Kinetex Evo C18 2.6 um 50 x 2.1 mm
Retention time: 0.616 min
Base peak: 249.1956
Precursor m/z: 288.1594
Precursor type: [M+H]+
m/z	relative intensity	assigned
94.0653	1	C6H8N+
109.065	2	C7H9O+
132.0811	5	C9H10N+
133.0887	8	C9H11N+
134.0965	9	C9H12N+
137.0599	4	C8H9O2+
150.0916	6	C9H12NO+
151.0993	36	C9H13NO+
161.0963	1	C11H13O+
167.0852	1	C13H11+
175.0754	7	C11H11O2+
179.0858	15	C14H11+
181.1014	6	C14H13+
187.0757	1	C12H11O2+
189.0911	5	C12H13O2+
191.0704	1	C11H11O3+
193.1015	2	C15H13+
197.0963	111	C14H13O+
198.0679	1	C13H10O2+
199.0756	66	C13H11O2+
203.1069	16	C13H15O2+
207.0807	20	C15H11O+
209.0963	95	C15H13O+
210.0678	6	C14H10O2+
210.1274	1	C15H16N+
211.0753	1	C14H11O2+
211.1122	3	C15H15O+
213.0912	396	C14H13O2+
216.1018	4	C13H14NO2+
220.1123	5	C16H14N+
221.0964	6	C16H13O+
223.0998	1	C15H13NO+
225.0912	798	C15H13O2+
227.1068	6	C15H15O2+
229.0866	1	C14H13O3+
229.1222	3	C15H17O2+
230.1182	2	C14H16NO2+
231.1017	781	C14H15O3+
238.0994	1	C16H14O2+
238.1229	8	C16H16NO+
239.1067	27	C16H15O2+
241.1225	8	C16H17O2+
242.0939	5	C15H14O3+
245.1174	14	C15H17O3+
252.1387	1	C17H18NO+
253.1226	11	C17H17O2+
255.1256	19	C16H17NO2+
257.1175	55	C16H17O3+
268.1337	1	C17H18NO2+
270.1491	999	C17H20NO2+
273.1356	1	C16H19NO3+
