Mass spectrum: Citrinin; LC-ESI-ITFT; MS2; CE: 105%; R=15000; [M+H]+
Name: Citrinin
Formula: C13H14O5
Exact mass: 250.0841
SMILES: C[C@H]1OC=C2C(O)=C(C(O)=O)C(=O)C(C)=C2[C@@H]1C
InChI: InChI=1S/C13H14O5/c1-5-7(3)18-4-8-9(5)6(2)11(14)10(12(8)15)13(16)17/h4-5,7,15H,1-3H3,(H,16,17)/t5-,7-/m1/s1
Instrument: LTQ Orbitrap XL Thermo Scientific
Instrument type: LC-ESI-ITFT
Ms type: MS2
Ion mode: POSITIVE
Ionization: ESI
Fragmentation mode: HCD
Collision energy: 105 % (nominal)
Resolution: 15000
Column name: Kinetex Evo C18 2.6 um 50 x 2.1 mm
Retention time: 11.945 min
Base peak: 251.0912
Precursor m/z: 251.0914
Precursor type: [M+H]+
m/z	relative intensity	assigned
119.0854	2	C9H11+
137.0959	3	C9H13O+
147.0803	6	C10H11O+
191.0702	15	C11H11O3+
205.0856	16	C12H13O3+
209.0803	3	C11H13O4+
215.07	6	C13H11O3+
233.0806	999	C13H13O4+
251.0912	119	C13H15O5+
