Mass spectrum: Coniferaldehyde; LC-ESI-ITFT; MS2; CE: 60%; R=15000; [M+H]+
Name: Coniferaldehyde
Formula: C10H10O3
Exact mass: 178.0630
SMILES: COC1=CC(\C=C\C=O)=CC=C1O
InChI: InChI=1S/C10H10O3/c1-13-10-7-8(3-2-6-11)4-5-9(10)12/h2-7,12H,1H3/b3-2+
Instrument: LTQ Orbitrap XL Thermo Scientific
Instrument type: LC-ESI-ITFT
Ms type: MS2
Ion mode: POSITIVE
Ionization: ESI
Fragmentation mode: HCD
Collision energy: 60 % (nominal)
Resolution: 15000
Column name: Kinetex Evo C18 2.6 um 50 x 2.1 mm
Retention time: 7.434 min
Base peak: 179.07
Precursor m/z: 179.0703
Precursor type: [M+H]+
m/z	relative intensity	assigned
79.0543	38	C6H7+
80.0623	11	C6H8+
91.0543	727	C7H7+
95.0491	26	C6H7O+
103.0542	75	C8H7+
105.0699	277	C8H9+
107.0491	32	C7H7O+
115.0542	68	C9H7+
118.0414	83	C8H6O+
119.0492	999	C8H7O+
123.0441	41	C7H7O2+
131.0495	16	C9H7O+
133.0649	347	C9H9O+
135.0441	27	C8H7O2+
136.052	247	C8H8O2+
137.0597	41	C8H9O2+
146.0363	220	C9H6O2+
147.0441	863	C9H7O2+
151.0753	11	C9H11O2+
161.0598	375	C10H9O2+
164.0469	37	C9H8O3+
179.0706	60	C10H11O3+
