Mass spectrum: Coniferaldehyde; LC-ESI-ITFT; MS2; CE: 50%; R=15000; [M+H]+
Name: Coniferaldehyde
Formula: C10H10O3
Exact mass: 178.0630
SMILES: COC1=CC(\C=C\C=O)=CC=C1O
InChI: InChI=1S/C10H10O3/c1-13-10-7-8(3-2-6-11)4-5-9(10)12/h2-7,12H,1H3/b3-2+
Instrument: LTQ Orbitrap XL Thermo Scientific
Instrument type: LC-ESI-ITFT
Ms type: MS2
Ion mode: POSITIVE
Ionization: ESI
Fragmentation mode: HCD
Collision energy: 50 % (nominal)
Resolution: 15000
Column name: Kinetex Evo C18 2.6 um 50 x 2.1 mm
Retention time: 7.434 min
Base peak: 179.07
Precursor m/z: 179.0703
Precursor type: [M+H]+
m/z	relative intensity	assigned
79.0542	9	C6H7+
80.0624	5	C6H8+
91.0542	243	C7H7+
95.049	27	C6H7O+
103.0543	32	C8H7+
105.0699	207	C8H9+
115.0542	49	C9H7+
118.0412	23	C8H6O+
119.0492	593	C8H7O+
123.0442	32	C7H7O2+
131.0493	7	C9H7O+
133.0648	321	C9H9O+
136.0518	73	C8H8O2+
137.0599	25	C8H9O2+
146.0363	83	C9H6O2+
147.044	999	C9H7O2+
151.0753	14	C9H11O2+
161.0597	477	C10H9O2+
164.0465	26	C9H8O3+
179.0703	158	C10H11O3+
