Mass spectrum: Daphnetin; LC-ESI-ITFT; MS2; CE: 125%; R=15000; [M+H]+
Name: Daphnetin
Formula: C9H6O4
Exact mass: 178.0266
SMILES: OC1=CC=C2C=CC(=O)OC2=C1O
InChI: InChI=1S/C9H6O4/c10-6-3-1-5-2-4-7(11)13-9(5)8(6)12/h1-4,10,12H
Instrument: LTQ Orbitrap XL Thermo Scientific
Instrument type: LC-ESI-ITFT
Ms type: MS2
Ion mode: POSITIVE
Ionization: ESI
Fragmentation mode: HCD
Collision energy: 125 % (nominal)
Resolution: 15000
Column name: Kinetex Evo C18 2.6 um 50 x 2.1 mm
Retention time: 4.637 min
Base peak: 143.0014
Precursor m/z: 179.0339
Precursor type: [M+H]+
m/z	relative intensity	assigned
89.0387	109	C7H5+
91.0542	72	C7H7+
105.0335	152	C7H5O+
107.0494	34	C7H7O+
117.0337	76	C8H5O+
119.0491	84	C8H7O+
123.0441	418	C7H7O2+
133.0285	999	C8H5O2+
135.0441	220	C8H7O2+
147.0445	62	C9H7O2+
151.0388	32	C8H7O3+
161.0231	26	C9H5O3+
179.034	841	C9H7O4+
