Mass spectrum: Matairesinol; LC-ESI-ITFT; MS2; CE: 35%; R=15000; [M+H]+
Name: Matairesinol
Formula: C20H22O6
Exact mass: 358.1416
SMILES: COC1=CC(C[C@H]2COC(=O)[C@@H]2CC2=CC=C(O)C(OC)=C2)=CC=C1O
InChI: InChI=1S/C20H22O6/c1-24-18-9-12(3-5-16(18)21)7-14-11-26-20(23)15(14)8-13-4-6-17(22)19(10-13)25-2/h3-6,9-10,14-15,21-22H,7-8,11H2,1-2H3/t14-,15+/m0/s1
Instrument: LTQ Orbitrap XL Thermo Scientific
Instrument type: LC-ESI-ITFT
Ms type: MS2
Ion mode: POSITIVE
Ionization: ESI
Fragmentation mode: HCD
Collision energy: 35 % (nominal)
Resolution: 15000
Column name: Kinetex Evo C18 2.6 um 50 x 2.1 mm
Retention time: 9.344 min
Base peak: 359.1488
Precursor m/z: 359.1489
Precursor type: [M+H]+
m/z	relative intensity	assigned
131.0492	84	C9H7O+
137.0597	999	C8H9O2+
149.0592	3	C9H9O2+
151.0392	17	C8H7O3+
151.0754	7	C9H11O2+
163.0753	61	C10H11O2+
165.055	10	C9H9O3+
177.055	6	C10H9O3+
179.0704	3	C10H11O3+
189.0912	7	C12H13O2+
191.0705	7	C11H11O3+
205.0859	15	C12H13O3+
217.0858	19	C13H13O3+
223.0966	18	C12H15O4+
263.1072	8	C18H15O2+
323.1265	2	C20H19O4+
