Mass spectrum: alpha-Cyperone; LC-ESI-ITFT; MS2; CE: 45%; R=15000; [M+H]+
Name: alpha-Cyperone
Formula: C15H22O
Exact mass: 218.1671
SMILES: CC1=C2CC(CCC2(CCC1=O)C)C(=C)C
InChI: InChI=1S/C15H22O/c1-10(2)12-5-7-15(4)8-6-14(16)11(3)13(15)9-12/h12H,1,5-9H2,2-4H3
Instrument: LTQ Orbitrap XL Thermo Scientific
Instrument type: LC-ESI-ITFT
Ms type: MS2
Ion mode: POSITIVE
Ionization: ESI
Fragmentation mode: CID
Collision energy: 45 % (nominal)
Resolution: 15000
Column name: Kinetex Evo C18 2.6 um 50 x 2.1 mm
Retention time: 12.994 min
Base peak: 219.1742
Precursor m/z: 219.1743
Precursor type: [M+H]+
m/z	relative intensity	assigned
67.0542	20	C5H7+
77.0386	3	C6H5+
79.0542	16	C6H7+
81.0699	59	C6H9+
91.0542	13	C7H7+
93.0699	46	C7H9+
95.0856	180	C7H11+
97.0648	219	C6H9O+
105.0699	111	C8H9+
107.0856	139	C8H11+
109.0648	21	C7H9O+
109.1012	353	C8H13+
111.0804	331	C7H11O+
113.0958	2	C7H13O+
117.07	8	C9H9+
119.0855	171	C9H11+
121.0648	23	C8H9O+
121.1012	137	C9H13+
123.0804	167	C8H11O+
123.1168	132	C9H15+
125.0961	36	C8H13O+
131.0855	91	C10H11+
133.1011	63	C10H13+
135.0805	131	C9H11O+
135.1168	99	C10H15+
137.0961	48	C9H13O+
137.1322	6	C10H17+
139.1117	8	C9H15O+
145.1012	426	C11H13+
147.1168	194	C11H15+
149.0961	126	C10H13O+
149.1325	39	C11H17+
151.1117	9	C10H15O+
159.1169	423	C12H15+
161.1325	329	C12H17+
162.1044	5	C11H14O+
163.1117	999	C11H15O+
164.1194	2	C11H16O+
173.1325	330	C13H17+
175.1481	99	C13H19+
176.1193	17	C12H16O+
177.1274	101	C12H17O+
177.1637	51	C13H21+
190.136	3	C13H18O+
191.1431	34	C13H19O+
191.1794	69	C14H23+
201.1637	972	C15H21+
204.1505	9	C14H20O+
