Mass spectrum: (+)-Lupanine; LC-ESI-ITFT; MS2; CE: 45%; R=15000; [M+H]+
Name: (+)-Lupanine
Formula: C15H24N2O
Exact mass: 248.1889
SMILES: C1CCN2CC3CC(C2C1)CN4C3CCCC4=O
InChI: InChI=1S/C15H24N2O/c18-15-6-3-5-14-11-8-12(10-17(14)15)13-4-1-2-7-16(13)9-11/h11-14H,1-10H2
Instrument: LTQ Orbitrap XL Thermo Scientific
Instrument type: LC-ESI-ITFT
Ms type: MS2
Ion mode: POSITIVE
Ionization: ESI
Fragmentation mode: CID
Collision energy: 45 % (nominal)
Resolution: 15000
Column name: Kinetex Evo C18 2.6 um 50 x 2.1 mm
Retention time: 0.490 min
Base peak: 249.1957
Precursor m/z: 249.1961
Precursor type: [M+H]+
m/z	relative intensity	assigned
70.0651	4	C4H8N+
77.0387	3	C6H5+
79.0542	9	C6H7+
80.0495	34	C5H6N+
82.0652	5	C5H8N+
84.0808	29	C5H10N+
85.0646	8	C5H9O+
91.0543	32	C7H7+
93.0699	10	C7H9+
94.0652	23	C6H8N+
96.0808	99	C6H10N+
98.0599	9	C5H8NO+
98.0964	113	C6H12N+
100.0754	6	C5H10NO+
105.0699	31	C8H9+
107.0854	12	C8H11+
108.0808	27	C7H10N+
110.0599	3	C6H8NO+
110.0964	15	C7H12N+
112.0757	77	C6H10NO+
112.1121	8	C7H14N+
114.0913	287	C6H12NO+
117.0697	6	C9H9+
118.0649	4	C8H8N+
119.0857	4	C9H11+
120.0808	7	C8H10N+
121.1012	10	C9H13+
122.0964	62	C8H12N+
124.0757	16	C7H10NO+
124.112	32	C8H14N+
131.0855	13	C10H11+
133.1013	25	C10H13+
134.0965	158	C9H12N+
135.1042	9	C9H13N+
136.112	999	C9H14N+
138.0914	16	C8H12NO+
138.1277	18	C9H16N+
141.0697	6	C11H9+
143.0857	4	C11H11+
145.1013	11	C11H13+
146.096	6	C10H12N+
148.0758	19	C9H10NO+
148.1121	82	C10H14N+
150.0914	26	C9H12NO+
150.1277	384	C10H16N+
152.107	73	C9H14NO+
152.1434	57	C10H18N+
155.0859	3	C12H11+
157.1017	3	C12H13+
159.1169	11	C12H15+
162.0912	10	C10H12NO+
162.1278	22	C11H16N+
164.107	15	C10H14NO+
164.1434	4	C11H18N+
166.1226	44	C10H16NO+
169.1012	8	C13H13+
172.112	3	C12H14N+
174.1278	42	C12H16N+
176.1071	12	C11H14NO+
176.1434	62	C12H18N+
178.1224	11	C11H16NO+
180.1383	2	C11H18NO+
183.1164	6	C14H15+
186.1276	5	C13H16N+
187.1119	7	C13H15O+
188.1434	15	C13H18N+
189.1386	81	C12H17N2+
190.1225	3	C12H16NO+
190.1468	6	C12H18N2+
190.159	20	C13H20N+
193.134	2	C11H17N2O+
193.1701	3	C12H21N2+
200.1438	13	C14H18N+
204.1383	183	C13H18NO+
206.154	31	C13H20NO+
207.1496	4	C12H19N2O+
214.1597	3	C15H20N+
218.1539	43	C14H20NO+
220.1695	10	C14H22NO+
229.17	8	C15H21N2+
231.1856	419	C15H23N2+
232.1697	6	C15H22NO+
249.1963	31	C15H25N2O+
