Mass spectrum: Anabasine; LC-ESI-ITFT; MS2; CE: 50%; R=15000; [M+H]+
Name: Anabasine
Formula: C10H14N2
Exact mass: 162.1157
SMILES: C1CCC(NC1)C1=CC=CN=C1
InChI: InChI=1S/C10H14N2/c1-2-7-12-10(5-1)9-4-3-6-11-8-9/h3-4,6,8,10,12H,1-2,5,7H2
Instrument: LTQ Orbitrap XL Thermo Scientific
Instrument type: LC-ESI-ITFT
Ms type: MS2
Ion mode: POSITIVE
Ionization: ESI
Fragmentation mode: HCD
Collision energy: 50 % (nominal)
Resolution: 15000
Column name: Kinetex Evo C18 2.6 um 50 x 2.1 mm
Retention time: 0.423 min
Base peak: 163.123
Precursor m/z: 163.123
Precursor type: [M+H]+
m/z	relative intensity	assigned
65.0385	3	C5H5+
67.0541	1	C5H7+
70.065	2	C4H8N+
80.0495	24	C5H6N+
82.0652	8	C5H8N+
84.0808	4	C5H10N+
92.0495	100	C6H6N+
93.0574	2	C6H7N+
94.0651	130	C6H8N+
106.0653	2	C7H8N+
108.081	1	C7H10N+
117.0573	20	C8H7N+
118.0651	99	C8H8N+
120.0808	91	C8H10N+
129.0698	2	C10H9+
130.0652	12	C9H8N+
131.0729	29	C9H9N+
132.0803	2	C9H10N+
134.0964	76	C9H12N+
144.0807	13	C10H10N+
146.0964	259	C10H12N+
163.1229	999	C10H15N2+
