Mass spectrum: Artemisinin; LC-ESI-ITFT; MS2; CE: 75%; R=15000; [M+H]+
Name: Artemisinin
Formula: C15H22O5
Exact mass: 282.1467
SMILES: C[C@@H]1CC[C@H]2[C@@H](C)C(=O)O[C@@H]3O[C@@]4(C)CC[C@@H]1[C@@]23OO4
InChI: InChI=1S/C15H22O5/c1-8-4-5-11-9(2)12(16)17-13-15(11)10(8)6-7-14(3,18-13)19-20-15/h8-11,13H,4-7H2,1-3H3/t8-,9-,10+,11+,13-,14-,15-/m1/s1
Instrument: LTQ Orbitrap XL Thermo Scientific
Instrument type: LC-ESI-ITFT
Ms type: MS2
Ion mode: POSITIVE
Ionization: ESI
Fragmentation mode: CID
Collision energy: 75 % (nominal)
Resolution: 15000
Column name: Kinetex Evo C18 2.6 um 50 x 2.1 mm
Retention time: 11.346 min
Base peak: 283.1539
Precursor m/z: 283.154
Precursor type: [M+H]+
m/z	relative intensity	assigned
95.0858	9	C7H11+
107.0856	18	C8H11+
119.0856	68	C9H11+
121.1012	25	C9H13+
123.0802	9	C8H11O+
125.0961	66	C8H13O+
131.0856	10	C10H11+
133.1013	20	C10H13+
135.0442	29	C8H7O2+
135.1167	14	C10H15+
145.1012	33	C11H13+
149.0961	29	C10H13O+
149.1325	25	C11H17+
151.1119	15	C10H15O+
157.086	64	C8H13O3+
159.1169	41	C12H15+
161.0958	13	C11H13O+
161.1327	24	C12H17+
163.1118	32	C11H15O+
165.0911	11	C10H13O2+
167.1068	19	C10H15O2+
173.0962	50	C12H13O+
173.1325	29	C13H17+
177.1275	76	C12H17O+
179.1067	38	C11H15O2+
181.1224	16	C11H17O2+
187.1119	16	C13H15O+
191.1068	36	C12H15O2+
191.1431	27	C13H19O+
195.138	43	C12H19O2+
197.1172	12	C11H17O3+
201.1275	91	C14H17O+
203.143	24	C14H19O+
205.1224	273	C13H17O2+
209.1173	78	C12H17O3+
209.1536	29	C13H21O2+
219.138	132	C14H19O2+
221.1537	29	C14H21O2+
223.133	113	C13H19O3+
229.1224	74	C15H17O2+
237.1486	120	C14H21O3+
247.133	850	C15H19O3+
265.1436	999	C15H21O4+
