Mass spectrum: alpha-Cyperone; LC-ESI-ITFT; MS2; CE: 50%; R=15000; [M+H]+
Name: alpha-Cyperone
Formula: C15H22O
Exact mass: 218.1671
SMILES: CC1=C2CC(CCC2(CCC1=O)C)C(=C)C
InChI: InChI=1S/C15H22O/c1-10(2)12-5-7-15(4)8-6-14(16)11(3)13(15)9-12/h12H,1,5-9H2,2-4H3
Instrument: LTQ Orbitrap XL Thermo Scientific
Instrument type: LC-ESI-ITFT
Ms type: MS2
Ion mode: POSITIVE
Ionization: ESI
Fragmentation mode: HCD
Collision energy: 50 % (nominal)
Resolution: 15000
Column name: Kinetex Evo C18 2.6 um 50 x 2.1 mm
Retention time: 12.994 min
Base peak: 219.1742
Precursor m/z: 219.1743
Precursor type: [M+H]+
m/z	relative intensity	assigned
55.0541	39	C4H7+
67.0541	96	C5H7+
69.0698	49	C5H9+
77.0382	7	C6H5+
79.0543	57	C6H7+
81.0699	218	C6H9+
83.0493	8	C5H7O+
83.0855	21	C6H11+
91.0542	25	C7H7+
93.0698	132	C7H9+
95.0855	290	C7H11+
97.0648	449	C6H9O+
105.0698	109	C8H9+
107.0855	194	C8H11+
109.0646	32	C7H9O+
109.1011	530	C8H13+
111.0804	999	C7H11O+
117.07	14	C9H9+
119.0855	174	C9H11+
121.0647	26	C8H9O+
121.1011	180	C9H13+
123.0804	397	C8H11O+
123.1167	104	C9H15+
125.096	38	C8H13O+
131.0853	49	C10H11+
133.1012	64	C10H13+
135.0804	126	C9H11O+
135.1167	132	C10H15+
137.096	257	C9H13O+
138.1039	53	C9H14O+
145.1011	165	C11H13+
147.1168	156	C11H15+
149.096	74	C10H13O+
149.1321	18	C11H17+
150.1036	20	C10H14O+
159.1168	118	C12H15+
161.0964	9	C11H13O+
161.1326	63	C12H17+
162.1041	17	C11H14O+
163.1117	390	C11H15O+
173.1324	55	C13H17+
175.1481	27	C13H19+
176.1197	38	C12H16O+
177.1274	54	C12H17O+
177.1635	10	C13H21+
191.179	11	C14H23+
201.1637	111	C15H21+
204.1507	24	C14H20O+
219.1742	546	C15H23O+
