Mass spectrum: Artemisinin; LC-ESI-ITFT; MS2; CE: 120%; R=15000; [M+H]+
Name: Artemisinin
Formula: C15H22O5
Exact mass: 282.1467
SMILES: C[C@@H]1CC[C@H]2[C@@H](C)C(=O)O[C@@H]3O[C@@]4(C)CC[C@@H]1[C@@]23OO4
InChI: InChI=1S/C15H22O5/c1-8-4-5-11-9(2)12(16)17-13-15(11)10(8)6-7-14(3,18-13)19-20-15/h8-11,13H,4-7H2,1-3H3/t8-,9-,10+,11+,13-,14-,15-/m1/s1
Instrument: LTQ Orbitrap XL Thermo Scientific
Instrument type: LC-ESI-ITFT
Ms type: MS2
Ion mode: POSITIVE
Ionization: ESI
Fragmentation mode: HCD
Collision energy: 120 % (nominal)
Resolution: 15000
Column name: Kinetex Evo C18 2.6 um 50 x 2.1 mm
Retention time: 11.346 min
Base peak: 283.1539
Precursor m/z: 283.154
Precursor type: [M+H]+
m/z	relative intensity	assigned
67.0542	518	C5H7+
93.07	993	C7H9+
95.0856	922	C7H11+
105.07	999	C8H9+
107.0856	584	C8H11+
109.0646	298	C7H9O+
119.086	557	C9H11+
123.0808	375	C8H11O+
131.0855	831	C10H11+
133.1013	568	C10H13+
145.101	471	C11H13+
159.117	296	C12H15+
161.0966	365	C11H13O+
219.138	235	C14H19O2+
