Mass spectrum: Galantamine; LC-ESI-ITFT; MS2; CE: 40%; R=15000; [M+H]+
Name: Galantamine
Formula: C17H21NO3
Exact mass: 287.1521
SMILES: CN1CCC23C=CC(CC2OC4=C(C=CC(=C34)C1)OC)O
InChI: InChI=1S/C17H21NO3/c1-18-8-7-17-6-5-12(19)9-14(17)21-16-13(20-2)4-3-11(10-18)15(16)17/h3-6,12,14,19H,7-10H2,1-2H3
Instrument: LTQ Orbitrap XL Thermo Scientific
Instrument type: LC-ESI-ITFT
Ms type: MS2
Ion mode: POSITIVE
Ionization: ESI
Fragmentation mode: HCD
Collision energy: 40 % (nominal)
Resolution: 15000
Column name: Kinetex Evo C18 2.6 um 50 x 2.1 mm
Retention time: 0.616 min
Base peak: 249.1956
Precursor m/z: 288.1594
Precursor type: [M+H]+
m/z	relative intensity	assigned
58.0649	13	C3H8N+
72.0808	4	C4H10N+
93.0697	12	C7H9+
94.0651	4	C6H8N+
109.0647	18	C7H9O+
132.0806	6	C9H10N+
133.0886	10	C9H11N+
134.0967	4	C9H12N+
135.0804	7	C9H11O+
137.0596	6	C8H9O2+
143.0857	3	C11H11+
151.0753	3	C9H11O2+
151.0991	23	C9H13NO+
161.0961	12	C11H13O+
171.0802	8	C12H11O+
175.0751	14	C11H11O2+
175.1117	8	C12H15O+
179.0852	9	C14H11+
181.1009	28	C14H13+
182.0723	4	C13H10O+
185.0958	8	C13H13O+
187.0751	3	C12H11O2+
189.0907	11	C12H13O2+
191.0701	3	C11H11O3+
191.0859	4	C15H11+
197.0959	60	C14H13O+
198.0674	26	C13H10O2+
199.0751	36	C13H11O2+
203.1064	62	C13H15O2+
207.0801	12	C15H11O+
209.0959	105	C15H13O+
210.0668	4	C14H10O2+
213.0907	999	C14H13O2+
216.0782	4	C13H12O3+
225.0908	199	C15H13O2+
227.1065	8	C15H15O2+
229.0857	6	C14H13O3+
231.1013	419	C14H15O3+
238.1223	3	C16H16NO+
239.1066	10	C16H15O2+
241.1221	5	C16H17O2+
242.0934	5	C15H14O3+
255.1253	9	C16H17NO2+
257.1168	9	C16H17O3+
270.1487	111	C17H20NO2+
288.1593	127	C17H22NO3+
