Mass spectrum: Matairesinol; LC-ESI-ITFT; MS2; CE: 100%; R=15000; [M+H]+
Name: Matairesinol
Formula: C20H22O6
Exact mass: 358.1416
SMILES: COC1=CC(C[C@H]2COC(=O)[C@@H]2CC2=CC=C(O)C(OC)=C2)=CC=C1O
InChI: InChI=1S/C20H22O6/c1-24-18-9-12(3-5-16(18)21)7-14-11-26-20(23)15(14)8-13-4-6-17(22)19(10-13)25-2/h3-6,9-10,14-15,21-22H,7-8,11H2,1-2H3/t14-,15+/m0/s1
Instrument: LTQ Orbitrap XL Thermo Scientific
Instrument type: LC-ESI-ITFT
Ms type: MS2
Ion mode: POSITIVE
Ionization: ESI
Fragmentation mode: HCD
Collision energy: 100 % (nominal)
Resolution: 15000
Column name: Kinetex Evo C18 2.6 um 50 x 2.1 mm
Retention time: 9.383 min
Base peak: 381.1302
Precursor m/z: 359.1489
Precursor type: [M+H]+
m/z	relative intensity	assigned
103.0542	15	C8H7+
107.0491	2	C7H7O+
131.049	105	C9H7O+
137.0596	999	C8H9O2+
145.0647	2	C10H9O+
147.0439	5	C9H7O2+
149.0596	5	C9H9O2+
151.0389	18	C8H7O3+
151.0753	8	C9H11O2+
157.0647	3	C11H9O+
163.0752	56	C10H11O2+
165.0547	8	C9H9O3+
177.0909	8	C11H13O2+
179.0701	5	C10H11O3+
189.0906	8	C12H13O2+
191.0703	6	C11H11O3+
203.0703	2	C12H11O3+
205.0856	11	C12H13O3+
217.0857	17	C13H13O3+
223.0963	11	C12H15O4+
231.0802	2	C17H11O+
263.1066	6	C18H15O2+
291.1019	5	C19H15O3+
