Mass spectrum: Bergapten/Heraclin; LC-ESI-ITFT; MS2; CE: 85%; R=15000; [M+H]+
Name: Bergapten/Heraclin
Formula: C12H8O4
Exact mass: 216.0423
SMILES: COC1=C2C=COC2=CC2=C1C=CC(=O)O2
InChI: InChI=1S/C12H8O4/c1-14-12-7-2-3-11(13)16-10(7)6-9-8(12)4-5-15-9/h2-6H,1H3
Instrument: LTQ Orbitrap XL Thermo Scientific
Instrument type: LC-ESI-ITFT
Ms type: MS2
Ion mode: POSITIVE
Ionization: ESI
Fragmentation mode: HCD
Collision energy: 85 % (nominal)
Resolution: 15000
Column name: Kinetex Evo C18 2.6 um 50 x 2.1 mm
Retention time: 10.154 min
Base peak: 217.0491
Precursor m/z: 217.0495
Precursor type: [M+H]+
m/z	relative intensity	assigned
105.0696	4	C8H9+
115.0541	28	C9H7+
117.0698	21	C9H9+
130.0414	4	C9H6O+
131.0492	12	C9H7O+
133.0647	5	C9H9O+
143.0493	8	C10H7O+
145.0647	17	C10H9O+
158.0356	6	C10H6O2+
161.0595	35	C10H9O2+
173.0595	71	C11H9O2+
174.031	31	C10H6O3+
189.0547	5	C11H9O3+
202.0258	999	C11H6O4+
217.0493	891	C12H9O4+
