Mass spectrum: 4-Phenyl-3-buten-2-one; LC-ESI-ITFT; MS2; CE: 125%; R=15000; [M+H]+
Name: 4-Phenyl-3-buten-2-one
Formula: C10H10O
Exact mass: 146.0732
SMILES: CC(=O)\C=C\C1=CC=CC=C1
InChI: InChI=1S/C10H10O/c1-9(11)7-8-10-5-3-2-4-6-10/h2-8H,1H3/b8-7+
Instrument: LTQ Orbitrap XL Thermo Scientific
Instrument type: LC-ESI-ITFT
Ms type: MS2
Ion mode: POSITIVE
Ionization: ESI
Fragmentation mode: HCD
Collision energy: 125 % (nominal)
Resolution: 15000
Column name: Kinetex Evo C18 2.6 um 50 x 2.1 mm
Retention time: 9.218 min
Base peak: 147.0803
Precursor m/z: 147.0804
Precursor type: [M+H]+
m/z	relative intensity	assigned
69.0335	3	C4H5O+
91.0542	52	C7H7+
103.0541	8	C8H7+
105.0699	10	C8H9+
107.049	6	C7H7O+
117.0698	13	C9H9+
119.0492	4	C8H7O+
119.0854	30	C9H11+
127.0538	3	C10H7+
128.062	158	C10H8+
129.0697	999	C10H9+
132.057	8	C9H8O+
145.0647	6	C10H9O+
147.0803	422	C10H11O+
