Mass spectrum: Daphnetin; LC-ESI-ITFT; MS2; CE: 85%; R=15000; [M+H]+
Name: Daphnetin
Formula: C9H6O4
Exact mass: 178.0266
SMILES: OC1=CC=C2C=CC(=O)OC2=C1O
InChI: InChI=1S/C9H6O4/c10-6-3-1-5-2-4-7(11)13-9(5)8(6)12/h1-4,10,12H
Instrument: LTQ Orbitrap XL Thermo Scientific
Instrument type: LC-ESI-ITFT
Ms type: MS2
Ion mode: POSITIVE
Ionization: ESI
Fragmentation mode: CID
Collision energy: 85 % (nominal)
Resolution: 15000
Column name: Kinetex Evo C18 2.6 um 50 x 2.1 mm
Retention time: 4.637 min
Base peak: 143.0014
Precursor m/z: 179.0339
Precursor type: [M+H]+
m/z	relative intensity	assigned
89.0387	68	C7H5+
107.0492	77	C7H7O+
117.0335	99	C8H5O+
123.0441	92	C7H7O2+
133.0285	999	C8H5O2+
135.0441	614	C8H7O2+
147.0441	800	C9H7O2+
151.0389	28	C8H7O3+
161.0234	228	C9H5O3+
