Mass spectrum: (+)-Lupanine; LC-ESI-ITFT; MS2; CE: 125%; R=15000; [M+H]+
Name: (+)-Lupanine
Formula: C15H24N2O
Exact mass: 248.1889
SMILES: C1CCN2CC3CC(C2C1)CN4C3CCCC4=O
InChI: InChI=1S/C15H24N2O/c18-15-6-3-5-14-11-8-12(10-17(14)15)13-4-1-2-7-16(13)9-11/h11-14H,1-10H2
Instrument: LTQ Orbitrap XL Thermo Scientific
Instrument type: LC-ESI-ITFT
Ms type: MS2
Ion mode: POSITIVE
Ionization: ESI
Fragmentation mode: HCD
Collision energy: 125 % (nominal)
Resolution: 15000
Column name: Kinetex Evo C18 2.6 um 50 x 2.1 mm
Retention time: 0.490 min
Base peak: 249.1957
Precursor m/z: 249.1961
Precursor type: [M+H]+
m/z	relative intensity	assigned
70.0651	12	C4H8N+
80.0495	1	C5H6N+
84.0808	4	C5H10N+
85.0648	6	C5H9O+
93.07	1	C7H9+
96.0807	5	C6H10N+
98.0964	26	C6H12N+
112.076	2	C6H10NO+
114.0913	74	C6H12NO+
134.0964	11	C9H12N+
136.112	164	C9H14N+
150.1276	13	C10H16N+
231.1856	8	C15H23N2+
247.1807	16	C15H23N2O+
249.1961	999	C15H25N2O+
