Mass spectrum: Anabasine; LC-ESI-ITFT; MS2; CE: 90%; R=15000; [M+H]+
Name: Anabasine
Formula: C10H14N2
Exact mass: 162.1157
SMILES: C1CCC(NC1)C1=CC=CN=C1
InChI: InChI=1S/C10H14N2/c1-2-7-12-10(5-1)9-4-3-6-11-8-9/h3-4,6,8,10,12H,1-2,5,7H2
Instrument: LTQ Orbitrap XL Thermo Scientific
Instrument type: LC-ESI-ITFT
Ms type: MS2
Ion mode: POSITIVE
Ionization: ESI
Fragmentation mode: HCD
Collision energy: 90 % (nominal)
Resolution: 15000
Column name: Kinetex Evo C18 2.6 um 50 x 2.1 mm
Retention time: 0.423 min
Base peak: 163.123
Precursor m/z: 163.123
Precursor type: [M+H]+
m/z	relative intensity	assigned
65.0385	14	C5H5+
67.0544	2	C5H7+
70.0652	9	C4H8N+
80.0495	62	C5H6N+
82.0652	18	C5H8N+
84.0809	15	C5H10N+
92.0496	340	C6H6N+
93.0574	13	C6H7N+
94.0652	360	C6H8N+
106.0652	12	C7H8N+
117.0574	94	C8H7N+
118.0652	365	C8H8N+
120.0808	194	C8H10N+
129.0701	14	C10H9+
130.0652	59	C9H8N+
131.073	110	C9H9N+
132.0808	13	C9H10N+
134.0965	169	C9H12N+
144.0809	43	C10H10N+
146.0965	450	C10H12N+
163.123	999	C10H15N2+
