Mass spectrum: Coniferaldehyde; LC-ESI-ITFT; MS2; CE: 105%; R=15000; [M+H]+
Name: Coniferaldehyde
Formula: C10H10O3
Exact mass: 178.0630
SMILES: COC1=CC(\C=C\C=O)=CC=C1O
InChI: InChI=1S/C10H10O3/c1-13-10-7-8(3-2-6-11)4-5-9(10)12/h2-7,12H,1H3/b3-2+
Instrument: LTQ Orbitrap XL Thermo Scientific
Instrument type: LC-ESI-ITFT
Ms type: MS2
Ion mode: POSITIVE
Ionization: ESI
Fragmentation mode: HCD
Collision energy: 105 % (nominal)
Resolution: 15000
Column name: Kinetex Evo C18 2.6 um 50 x 2.1 mm
Retention time: 7.434 min
Base peak: 179.07
Precursor m/z: 179.0703
Precursor type: [M+H]+
m/z	relative intensity	assigned
55.0177	4	C3H3O+
91.0543	44	C7H7+
95.0491	11	C6H7O+
103.0542	8	C8H7+
105.0699	90	C8H9+
115.0543	23	C9H7+
119.0491	226	C8H7O+
123.0441	21	C7H7O2+
131.0492	5	C9H7O+
133.0648	228	C9H9O+
136.0518	16	C8H8O2+
137.0597	16	C8H9O2+
146.0362	15	C9H6O2+
147.044	999	C9H7O2+
151.0753	15	C9H11O2+
161.0597	527	C10H9O2+
164.0467	15	C9H8O3+
179.0703	537	C10H11O3+
