Mass spectrum: Coniferaldehyde; LC-ESI-ITFT; MS2; CE: 35%; R=15000; [M+H]+
Name: Coniferaldehyde
Formula: C10H10O3
Exact mass: 178.0630
SMILES: COC1=CC(\C=C\C=O)=CC=C1O
InChI: InChI=1S/C10H10O3/c1-13-10-7-8(3-2-6-11)4-5-9(10)12/h2-7,12H,1H3/b3-2+
Instrument: LTQ Orbitrap XL Thermo Scientific
Instrument type: LC-ESI-ITFT
Ms type: MS2
Ion mode: POSITIVE
Ionization: ESI
Fragmentation mode: CID
Collision energy: 35 % (nominal)
Resolution: 15000
Column name: Kinetex Evo C18 2.6 um 50 x 2.1 mm
Retention time: 7.434 min
Base peak: 179.07
Precursor m/z: 179.0703
Precursor type: [M+H]+
m/z	relative intensity	assigned
55.0177	9	C3H3O+
91.0543	2	C7H7+
95.0492	12	C6H7O+
105.0699	29	C8H9+
109.0284	2	C6H5O2+
115.0543	10	C9H7+
119.0492	37	C8H7O+
123.0441	32	C7H7O2+
123.0805	3	C8H11O+
131.0493	1	C9H7O+
133.0648	132	C9H9O+
135.0441	9	C8H7O2+
137.0598	8	C8H9O2+
147.0441	985	C9H7O2+
149.0596	3	C9H9O2+
151.0754	16	C9H11O2+
161.0598	999	C10H9O2+
164.0468	1	C9H8O3+
179.0703	307	C10H11O3+
