Mass spectrum: Tomatidine; LC-ESI-ITFT; MS2; CE: 115%; R=15000; [M+H]+
Name: Tomatidine
Formula: C27H45NO2
Exact mass: 415.3450
SMILES: C[C@H]1[C@H]2[C@H](C[C@H]3[C@@H]4CC[C@H]5C[C@@H](O)CC[C@]5(C)[C@H]4CC[C@]23C)O[C@@]11CC[C@H](C)CN1
InChI: InChI=1S/C27H45NO2/c1-16-7-12-27(28-15-16)17(2)24-23(30-27)14-22-20-6-5-18-13-19(29)8-10-25(18,3)21(20)9-11-26(22,24)4/h16-24,28-29H,5-15H2,1-4H3/t16-,17-,18-,19-,20+,21-,22-,23-,24-,25-,26-,27-/m0/s1
Instrument: LTQ Orbitrap XL Thermo Scientific
Instrument type: LC-ESI-ITFT
Ms type: MS2
Ion mode: POSITIVE
Ionization: ESI
Fragmentation mode: HCD
Collision energy: 115 % (nominal)
Resolution: 15000
Column name: Kinetex Evo C18 2.6 um 50 x 2.1 mm
Retention time: 10.063 min
Base peak: 217.0492
Precursor m/z: 416.3523
Precursor type: [M+H]+
m/z	relative intensity	assigned
67.0542	10	C5H7+
70.0651	51	C4H8N+
79.0543	33	C6H7+
81.0699	40	C6H9+
91.0542	19	C7H7+
93.0698	37	C7H9+
95.0855	47	C7H11+
105.0698	49	C8H9+
107.0855	74	C8H11+
109.1012	29	C8H13+
114.0913	51	C6H12NO+
119.0855	26	C9H11+
121.1011	45	C9H13+
124.1121	97	C8H14N+
126.1276	281	C8H16N+
131.0856	27	C10H11+
133.1012	54	C10H13+
135.1167	52	C10H15+
145.101	73	C11H13+
147.1167	193	C11H15+
149.1324	43	C11H17+
159.1167	99	C12H15+
161.1324	999	C12H17+
163.1119	37	C11H15O+
173.1323	58	C13H17+
175.1486	10	C13H19+
187.1485	13	C14H19+
199.1478	21	C15H19+
213.1635	24	C16H21+
227.1791	12	C17H23+
255.2107	284	C19H27+
273.2211	120	C19H29O+
398.3421	53	C27H44NO+
416.3523	135	C27H46NO2+
