Mass spectrum: Conessine; LC-ESI-ITFT; MS2; CE: 70%; R=15000; [M+H]+
Name: Conessine
Formula: C24H40N2
Exact mass: 356.3191
SMILES: C[C@H]1[C@H]2CC[C@H]3[C@@H]4CC=C5C[C@H](CC[C@]5(C)[C@H]4CC[C@]23CN1C)N(C)C
InChI: InChI=1S/C24H40N2/c1-16-20-8-9-22-19-7-6-17-14-18(25(3)4)10-12-23(17,2)21(19)11-13-24(20,22)15-26(16)5/h6,16,18-22H,7-15H2,1-5H3/t16-,18-,19+,20+,21-,22-,23-,24-/m0/s1
Instrument: LTQ Orbitrap XL Thermo Scientific
Instrument type: LC-ESI-ITFT
Ms type: MS2
Ion mode: POSITIVE
Ionization: ESI
Fragmentation mode: CID
Collision energy: 70 % (nominal)
Resolution: 15000
Column name: Kinetex Evo C18 2.6 um 50 x 2.1 mm
Retention time: 5.456 min
Base peak: 179.1665
Precursor m/z: 357.3264
Precursor type: [M+H]+
m/z	relative intensity	assigned
105.0698	18	C8H9+
107.0855	3	C8H11+
109.1012	3	C8H13+
115.0542	7	C9H7+
117.0699	16	C9H9+
119.0855	26	C9H11+
121.101	9	C9H13+
123.1166	3	C9H15+
128.0619	5	C10H8+
129.0698	11	C10H9+
130.0771	1	C10H10+
131.0855	41	C10H11+
133.1011	28	C10H13+
135.1168	13	C10H15+
142.0776	2	C11H10+
143.0855	10	C11H11+
144.0929	4	C11H12+
145.1011	47	C11H13+
147.1168	78	C11H15+
149.1324	8	C11H17+
155.0855	2	C12H11+
157.1012	18	C12H13+
159.1168	173	C12H15+
161.1324	140	C12H17+
163.1479	2	C12H19+
169.101	2	C13H13+
171.1168	18	C13H15+
173.1325	86	C13H17+
175.148	15	C13H19+
183.1167	4	C14H15+
185.1325	23	C14H17+
187.1481	100	C14H19+
189.1633	2	C14H21+
197.1323	2	C15H17+
199.148	30	C15H19+
201.1638	16	C15H21+
211.1484	5	C16H19+
213.1638	25	C16H21+
215.1793	1	C16H23+
225.1638	5	C17H21+
227.1794	21	C17H23+
239.1792	4	C18H23+
240.1877	5	C18H24+
241.1954	4	C18H25+
253.1952	2	C19H25+
269.2264	230	C20H29+
281.2262	5	C21H29+
283.2415	1	C21H31+
298.2527	6	C21H32N+
299.261	12	C21H33N+
312.2686	999	C22H34N+
326.2842	8	C23H36N+
