Mass spectrum: alpha-Cyperone; LC-ESI-ITFT; MS2; CE: 80%; R=15000; [M+H]+
Name: alpha-Cyperone
Formula: C15H22O
Exact mass: 218.1671
SMILES: CC1=C2CC(CCC2(CCC1=O)C)C(=C)C
InChI: InChI=1S/C15H22O/c1-10(2)12-5-7-15(4)8-6-14(16)11(3)13(15)9-12/h12H,1,5-9H2,2-4H3
Instrument: LTQ Orbitrap XL Thermo Scientific
Instrument type: LC-ESI-ITFT
Ms type: MS2
Ion mode: POSITIVE
Ionization: ESI
Fragmentation mode: CID
Collision energy: 80 % (nominal)
Resolution: 15000
Column name: Kinetex Evo C18 2.6 um 50 x 2.1 mm
Retention time: 12.994 min
Base peak: 219.1742
Precursor m/z: 219.1743
Precursor type: [M+H]+
m/z	relative intensity	assigned
55.0542	1	C4H7+
67.0543	19	C5H7+
69.07	3	C5H9+
77.0388	2	C6H5+
79.0544	20	C6H7+
81.07	45	C6H9+
91.0544	13	C7H7+
93.07	51	C7H9+
95.0857	171	C7H11+
97.0649	231	C6H9O+
105.07	117	C8H9+
107.0857	135	C8H11+
109.065	25	C7H9O+
109.1013	328	C8H13+
111.0806	326	C7H11O+
113.0962	3	C7H13O+
117.07	10	C9H9+
119.0857	169	C9H11+
121.0649	27	C8H9O+
121.1014	130	C9H13+
123.0806	160	C8H11O+
123.117	127	C9H15+
125.0962	37	C8H13O+
131.0857	88	C10H11+
133.1013	62	C10H13+
135.0806	123	C9H11O+
135.117	99	C10H15+
137.0963	48	C9H13O+
137.1327	6	C10H17+
139.1119	6	C9H15O+
145.1014	415	C11H13+
147.117	194	C11H15+
149.0963	138	C10H13O+
149.1327	36	C11H17+
151.1119	9	C10H15O+
159.1171	414	C12H15+
161.1327	305	C12H17+
162.1041	8	C11H14O+
163.1119	999	C11H15O+
164.1198	2	C11H16O+
173.1327	320	C13H17+
175.1484	95	C13H19+
176.1198	19	C12H16O+
177.1276	96	C12H17O+
177.164	44	C13H21+
190.1354	3	C13H18O+
191.1433	33	C13H19O+
191.1797	56	C14H23+
201.164	885	C15H21+
204.1511	10	C14H20O+
219.1747	976	C15H23O+
