Mass spectrum: Valerophenone; LC-ESI-ITFT; MS2; CE: 50%; R=15000; [M+H]+
Name: Valerophenone
Formula: C11H14O
Exact mass: 162.1045
SMILES: CCCCC(=O)C1=CC=CC=C1
InChI: InChI=1S/C11H14O/c1-2-3-9-11(12)10-7-5-4-6-8-10/h4-8H,2-3,9H2,1H3
Instrument: LTQ Orbitrap XL Thermo Scientific
Instrument type: LC-ESI-ITFT
Ms type: MS2
Ion mode: POSITIVE
Ionization: ESI
Fragmentation mode: CID
Collision energy: 50 % (nominal)
Resolution: 15000
Column name: Kinetex Evo C18 2.6 um 50 x 2.1 mm
Retention time: 11.614 min
Base peak: 440.3521
Precursor m/z: 163.1117
Precursor type: [M+H]+
m/z	relative intensity	assigned
57.0698	791	C4H9+
67.0542	7	C5H7+
79.0543	86	C6H7+
85.0649	456	C5H9O+
91.0543	215	C7H7+
105.07	112	C8H9+
107.0493	716	C7H7O+
117.07	53	C9H9+
119.0857	48	C9H11+
121.0649	152	C8H9O+
121.101	13	C9H13+
143.0858	9	C11H11+
145.1013	999	C11H13+
