Mass spectrum: Conessine; LC-ESI-ITFT; MS2; CE: 90%; R=15000; [M+H]+
Name: Conessine
Formula: C24H40N2
Exact mass: 356.3191
SMILES: C[C@H]1[C@H]2CC[C@H]3[C@@H]4CC=C5C[C@H](CC[C@]5(C)[C@H]4CC[C@]23CN1C)N(C)C
InChI: InChI=1S/C24H40N2/c1-16-20-8-9-22-19-7-6-17-14-18(25(3)4)10-12-23(17,2)21(19)11-13-24(20,22)15-26(16)5/h6,16,18-22H,7-15H2,1-5H3/t16-,18-,19+,20+,21-,22-,23-,24-/m0/s1
Instrument: LTQ Orbitrap XL Thermo Scientific
Instrument type: LC-ESI-ITFT
Ms type: MS2
Ion mode: POSITIVE
Ionization: ESI
Fragmentation mode: HCD
Collision energy: 90 % (nominal)
Resolution: 15000
Column name: Kinetex Evo C18 2.6 um 50 x 2.1 mm
Retention time: 5.456 min
Base peak: 179.1665
Precursor m/z: 357.3264
Precursor type: [M+H]+
m/z	relative intensity	assigned
67.0541	94	C5H7+
72.0807	71	C4H10N+
79.0541	77	C6H7+
81.0698	214	C6H9+
83.0855	56	C6H11+
84.0807	999	C5H10N+
91.0541	81	C7H7+
93.0698	178	C7H9+
95.0855	144	C7H11+
105.0698	165	C8H9+
107.0855	114	C8H11+
109.1011	312	C8H13+
117.0699	65	C9H9+
119.0854	110	C9H11+
121.101	141	C9H13+
123.1167	60	C9H15+
131.0854	119	C10H11+
133.1011	255	C10H13+
135.1167	256	C10H15+
143.0854	23	C11H11+
145.101	193	C11H13+
147.1167	581	C11H15+
149.1324	60	C11H17+
157.1009	38	C12H13+
159.1167	705	C12H15+
161.1323	511	C12H17+
171.1169	21	C13H15+
173.1323	246	C13H17+
175.1482	36	C13H19+
185.1325	59	C14H17+
187.148	332	C14H19+
199.148	59	C15H19+
200.1558	22	C15H20+
201.1635	53	C15H21+
213.1637	69	C16H21+
227.1789	40	C17H23+
269.2261	206	C20H29+
312.268	84	C22H34N+
357.3264	718	C24H41N2+
