Mass spectrum: Tomatidine; LC-ESI-ITFT; MS2; CE: 40%; R=15000; [M+H]+
Name: Tomatidine
Formula: C27H45NO2
Exact mass: 415.3450
SMILES: C[C@H]1[C@H]2[C@H](C[C@H]3[C@@H]4CC[C@H]5C[C@@H](O)CC[C@]5(C)[C@H]4CC[C@]23C)O[C@@]11CC[C@H](C)CN1
InChI: InChI=1S/C27H45NO2/c1-16-7-12-27(28-15-16)17(2)24-23(30-27)14-22-20-6-5-18-13-19(29)8-10-25(18,3)21(20)9-11-26(22,24)4/h16-24,28-29H,5-15H2,1-4H3/t16-,17-,18-,19-,20+,21-,22-,23-,24-,25-,26-,27-/m0/s1
Instrument: LTQ Orbitrap XL Thermo Scientific
Instrument type: LC-ESI-ITFT
Ms type: MS2
Ion mode: POSITIVE
Ionization: ESI
Fragmentation mode: HCD
Collision energy: 40 % (nominal)
Resolution: 15000
Column name: Kinetex Evo C18 2.6 um 50 x 2.1 mm
Retention time: 10.063 min
Base peak: 217.0492
Precursor m/z: 416.3523
Precursor type: [M+H]+
m/z	relative intensity	assigned
70.065	41	C4H8N+
79.0541	29	C6H7+
81.0699	21	C6H9+
91.0541	18	C7H7+
95.0855	15	C7H11+
105.0696	27	C8H9+
107.0853	39	C8H11+
109.1011	11	C8H13+
114.0912	68	C6H12NO+
119.0855	19	C9H11+
121.101	22	C9H13+
124.1119	90	C8H14N+
126.1276	287	C8H16N+
131.0857	10	C10H11+
133.101	29	C10H13+
135.1168	27	C10H15+
145.1011	42	C11H13+
147.1167	108	C11H15+
149.1323	16	C11H17+
151.1118	13	C10H15O+
159.1167	41	C12H15+
161.1324	522	C12H17+
163.1116	28	C11H15O+
173.1324	36	C13H17+
199.1482	12	C15H19+
255.2105	253	C19H27+
273.221	222	C19H29O+
398.3417	113	C27H44NO+
416.3522	999	C27H46NO2+
