Mass spectrum: Conessine; LC-ESI-ITFT; MS2; CE: 45%; R=15000; [M+H]+
Name: Conessine
Formula: C24H40N2
Exact mass: 356.3191
SMILES: C[C@H]1[C@H]2CC[C@H]3[C@@H]4CC=C5C[C@H](CC[C@]5(C)[C@H]4CC[C@]23CN1C)N(C)C
InChI: InChI=1S/C24H40N2/c1-16-20-8-9-22-19-7-6-17-14-18(25(3)4)10-12-23(17,2)21(19)11-13-24(20,22)15-26(16)5/h6,16,18-22H,7-15H2,1-5H3/t16-,18-,19+,20+,21-,22-,23-,24-/m0/s1
Instrument: LTQ Orbitrap XL Thermo Scientific
Instrument type: LC-ESI-ITFT
Ms type: MS2
Ion mode: POSITIVE
Ionization: ESI
Fragmentation mode: HCD
Collision energy: 45 % (nominal)
Resolution: 15000
Column name: Kinetex Evo C18 2.6 um 50 x 2.1 mm
Retention time: 5.456 min
Base peak: 179.1665
Precursor m/z: 357.3264
Precursor type: [M+H]+
m/z	relative intensity	assigned
67.054	8	C5H7+
72.0807	61	C4H10N+
81.0699	15	C6H9+
84.0806	15	C5H10N+
93.0699	8	C7H9+
105.0698	12	C8H9+
109.101	22	C8H13+
121.1012	15	C9H13+
133.1009	25	C10H13+
135.1167	37	C10H15+
145.1011	13	C11H13+
147.1166	71	C11H15+
159.1166	112	C12H15+
161.1323	77	C12H17+
173.1321	38	C13H17+
187.1479	63	C14H19+
201.1635	8	C15H21+
213.1633	9	C16H21+
269.2261	184	C20H29+
312.2683	221	C22H34N+
357.3262	999	C24H41N2+
