Mass spectrum: alpha-Cyperone; LC-ESI-ITFT; MS2; CE: 105%; R=15000; [M+H]+
Name: alpha-Cyperone
Formula: C15H22O
Exact mass: 218.1671
SMILES: CC1=C2CC(CCC2(CCC1=O)C)C(=C)C
InChI: InChI=1S/C15H22O/c1-10(2)12-5-7-15(4)8-6-14(16)11(3)13(15)9-12/h12H,1,5-9H2,2-4H3
Instrument: LTQ Orbitrap XL Thermo Scientific
Instrument type: LC-ESI-ITFT
Ms type: MS2
Ion mode: POSITIVE
Ionization: ESI
Fragmentation mode: HCD
Collision energy: 105 % (nominal)
Resolution: 15000
Column name: Kinetex Evo C18 2.6 um 50 x 2.1 mm
Retention time: 12.994 min
Base peak: 219.1742
Precursor m/z: 219.1743
Precursor type: [M+H]+
m/z	relative intensity	assigned
55.0541	16	C4H7+
67.0542	38	C5H7+
69.0699	13	C5H9+
79.0542	26	C6H7+
81.0699	113	C6H9+
83.0491	5	C5H7O+
83.0855	12	C6H11+
91.0543	10	C7H7+
93.0699	49	C7H9+
95.0856	128	C7H11+
97.0648	217	C6H9O+
105.0699	47	C8H9+
107.0855	78	C8H11+
109.0648	15	C7H9O+
109.1012	274	C8H13+
111.0804	331	C7H11O+
117.0699	3	C9H9+
119.0855	90	C9H11+
121.0648	11	C8H9O+
121.1012	78	C9H13+
123.0804	135	C8H11O+
123.1168	62	C9H15+
125.0961	16	C8H13O+
131.0855	24	C10H11+
133.1012	23	C10H13+
135.0804	65	C9H11O+
135.1168	66	C10H15+
137.0961	81	C9H13O+
138.104	12	C9H14O+
139.1115	1	C9H15O+
145.1012	83	C11H13+
147.1168	81	C11H15+
149.0961	39	C10H13O+
149.1325	11	C11H17+
150.1039	3	C10H14O+
151.1119	6	C10H15O+
159.1168	78	C12H15+
161.1325	53	C12H17+
162.1041	3	C11H14O+
163.1117	253	C11H15O+
164.1195	3	C11H16O+
173.1325	39	C13H17+
175.1482	19	C13H19+
176.1195	14	C12H16O+
177.1273	28	C12H17O+
177.1638	10	C13H21+
190.1352	2	C13H18O+
191.1434	4	C13H19O+
191.1796	10	C14H23+
201.1638	132	C15H21+
204.151	7	C14H20O+
219.1743	999	C15H23O+
