Mass spectrum: Artemisinin; LC-ESI-ITFT; MS2; CE: 50%; R=15000; [M+H]+
Name: Artemisinin
Formula: C15H22O5
Exact mass: 282.1467
SMILES: C[C@@H]1CC[C@H]2[C@@H](C)C(=O)O[C@@H]3O[C@@]4(C)CC[C@@H]1[C@@]23OO4
InChI: InChI=1S/C15H22O5/c1-8-4-5-11-9(2)12(16)17-13-15(11)10(8)6-7-14(3,18-13)19-20-15/h8-11,13H,4-7H2,1-3H3/t8-,9-,10+,11+,13-,14-,15-/m1/s1
Instrument: LTQ Orbitrap XL Thermo Scientific
Instrument type: LC-ESI-ITFT
Ms type: MS2
Ion mode: POSITIVE
Ionization: ESI
Fragmentation mode: CID
Collision energy: 50 % (nominal)
Resolution: 15000
Column name: Kinetex Evo C18 2.6 um 50 x 2.1 mm
Retention time: 11.346 min
Base peak: 283.1539
Precursor m/z: 283.154
Precursor type: [M+H]+
m/z	relative intensity	assigned
93.0699	11	C7H9+
95.0855	11	C7H11+
105.0696	9	C8H9+
107.0856	10	C8H11+
119.0856	31	C9H11+
121.1012	15	C9H13+
123.0803	8	C8H11O+
125.0962	70	C8H13O+
131.0854	13	C10H11+
133.1014	23	C10H13+
135.0442	31	C8H7O2+
135.117	12	C10H15+
145.1013	17	C11H13+
149.0963	26	C10H13O+
149.1323	23	C11H17+
151.1116	23	C10H15O+
157.086	78	C8H13O3+
159.1172	36	C12H15+
161.096	17	C11H13O+
161.1325	12	C12H17+
163.1118	23	C11H15O+
165.0912	7	C10H13O2+
167.1062	15	C10H15O2+
173.096	54	C12H13O+
173.1329	22	C13H17+
177.1275	43	C12H17O+
179.1068	28	C11H15O2+
181.1224	12	C11H17O2+
187.1121	22	C13H15O+
191.1068	29	C12H15O2+
191.1426	25	C13H19O+
195.1377	31	C12H19O2+
197.1176	9	C11H17O3+
201.1274	126	C14H17O+
203.1434	18	C14H19O+
205.1224	171	C13H17O2+
209.1173	51	C12H17O3+
209.1537	14	C13H21O2+
219.1379	119	C14H19O2+
221.1532	14	C14H21O2+
223.133	94	C13H19O3+
229.1224	107	C15H17O2+
237.1486	90	C14H21O3+
247.133	999	C15H19O3+
265.1436	920	C15H21O4+
