Mass spectrum: Psoralen; LC-ESI-ITFT; MS2; CE: 60%; R=15000; [M+H]+
Name: Psoralen
Name: furo[3,2-g]chromen-7-one
Formula: C11H6O3
Exact mass: 186.0317
SMILES: O=C1OC2=CC3=C(C=CO3)C=C2C=C1
InChI: InChI=1S/C11H6O3/c12-11-2-1-7-5-8-3-4-13-9(8)6-10(7)14-11/h1-6H
Instrument: LTQ Orbitrap XL Thermo Scientific
Instrument type: LC-ESI-ITFT
Ms type: MS2
Ion mode: POSITIVE
Ionization: ESI
Fragmentation mode: CID
Collision energy: 60 % (nominal)
Resolution: 15000
Column name: Kinetex Evo C18 2.6 um 50 x 2.1 mm
Retention time: 8.975 min
Base peak: 187.0386
Precursor m/z: 187.039
Precursor type: [M+H]+
m/z	relative intensity	assigned
115.0542	97	C9H7+
131.0491	51	C9H7O+
143.0491	225	C10H7O+
159.0441	30	C10H7O2+
187.0389	999	C11H7O3+
