Mass spectrum: Galantamine; LC-ESI-ITFT; MS2; CE: 35%; R=15000; [M+H]+
Name: Galantamine
Formula: C17H21NO3
Exact mass: 287.1521
SMILES: CN1CCC23C=CC(CC2OC4=C(C=CC(=C34)C1)OC)O
InChI: InChI=1S/C17H21NO3/c1-18-8-7-17-6-5-12(19)9-14(17)21-16-13(20-2)4-3-11(10-18)15(16)17/h3-6,12,14,19H,7-10H2,1-2H3
Instrument: LTQ Orbitrap XL Thermo Scientific
Instrument type: LC-ESI-ITFT
Ms type: MS2
Ion mode: POSITIVE
Ionization: ESI
Fragmentation mode: CID
Collision energy: 35 % (nominal)
Resolution: 15000
Column name: Kinetex Evo C18 2.6 um 50 x 2.1 mm
Retention time: 0.616 min
Base peak: 249.1956
Precursor m/z: 288.1594
Precursor type: [M+H]+
m/z	relative intensity	assigned
94.0653	2	C6H8N+
109.0649	2	C7H9O+
132.0809	6	C9H10N+
133.0888	10	C9H11N+
134.0966	9	C9H12N+
137.0599	5	C8H9O2+
150.0916	7	C9H12NO+
151.0994	35	C9H13NO+
161.0963	1	C11H13O+
167.0858	3	C13H11+
171.081	1	C12H11O+
175.0756	10	C11H11O2+
179.0858	16	C14H11+
181.1014	7	C14H13+
182.0729	1	C13H10O+
183.0808	1	C13H11O+
185.0961	1	C13H13O+
189.0914	6	C12H13O2+
191.0706	1	C11H11O3+
193.1015	1	C15H13+
197.0964	119	C14H13O+
198.0678	2	C13H10O2+
199.0756	65	C13H11O2+
203.107	18	C13H15O2+
207.0808	24	C15H11O+
209.0964	101	C15H13O+
210.0678	6	C14H10O2+
210.1281	1	C15H16N+
211.0755	1	C14H11O2+
211.112	4	C15H15O+
213.0913	410	C14H13O2+
216.1023	4	C13H14NO2+
220.1125	4	C16H14N+
221.0965	7	C16H13O+
223.1	2	C15H13NO+
224.0834	1	C15H12O2+
225.0913	796	C15H13O2+
227.1069	7	C15H15O2+
229.0862	1	C14H13O3+
229.1228	3	C15H17O2+
230.118	2	C14H16NO2+
231.1018	751	C14H15O3+
238.0989	1	C16H14O2+
238.1228	8	C16H16NO+
239.1069	28	C16H15O2+
241.1226	7	C16H17O2+
242.094	6	C15H14O3+
245.1175	13	C15H17O3+
252.1388	1	C17H18NO+
253.1227	11	C17H17O2+
255.1257	22	C16H17NO2+
257.1176	60	C16H17O3+
268.1334	1	C17H18NO2+
270.1492	999	C17H20NO2+
273.1366	2	C16H19NO3+
288.1599	52	C17H22NO3+
