Mass spectrum: Matairesinol; LC-ESI-ITFT; MS2; CE: 25%; R=15000; [M+H]+
Name: Matairesinol
Formula: C20H22O6
Exact mass: 358.1416
SMILES: COC1=CC(C[C@H]2COC(=O)[C@@H]2CC2=CC=C(O)C(OC)=C2)=CC=C1O
InChI: InChI=1S/C20H22O6/c1-24-18-9-12(3-5-16(18)21)7-14-11-26-20(23)15(14)8-13-4-6-17(22)19(10-13)25-2/h3-6,9-10,14-15,21-22H,7-8,11H2,1-2H3/t14-,15+/m0/s1
Instrument: LTQ Orbitrap XL Thermo Scientific
Instrument type: LC-ESI-ITFT
Ms type: MS2
Ion mode: POSITIVE
Ionization: ESI
Fragmentation mode: HCD
Collision energy: 25 % (nominal)
Resolution: 15000
Column name: Kinetex Evo C18 2.6 um 50 x 2.1 mm
Retention time: 9.344 min
Base peak: 359.1488
Precursor m/z: 359.1489
Precursor type: [M+H]+
m/z	relative intensity	assigned
131.049	56	C9H7O+
137.0595	999	C8H9O2+
149.0598	4	C9H9O2+
151.0386	33	C8H7O3+
163.0751	64	C10H11O2+
165.0551	5	C9H9O3+
177.0541	7	C10H9O3+
179.0704	7	C10H11O3+
191.0701	6	C11H11O3+
205.0856	14	C12H13O3+
217.0857	22	C13H13O3+
223.0962	48	C12H15O4+
235.0963	9	C13H15O4+
291.1017	10	C19H15O3+
341.139	8	C20H21O5+
359.1471	5	C20H23O6+
