Mass spectrum: alpha-Cyperone; LC-ESI-ITFT; MS2; CE: 65%; R=15000; [M+H]+
Name: alpha-Cyperone
Formula: C15H22O
Exact mass: 218.1671
SMILES: CC1=C2CC(CCC2(CCC1=O)C)C(=C)C
InChI: InChI=1S/C15H22O/c1-10(2)12-5-7-15(4)8-6-14(16)11(3)13(15)9-12/h12H,1,5-9H2,2-4H3
Instrument: LTQ Orbitrap XL Thermo Scientific
Instrument type: LC-ESI-ITFT
Ms type: MS2
Ion mode: POSITIVE
Ionization: ESI
Fragmentation mode: HCD
Collision energy: 65 % (nominal)
Resolution: 15000
Column name: Kinetex Evo C18 2.6 um 50 x 2.1 mm
Retention time: 12.994 min
Base peak: 219.1742
Precursor m/z: 219.1743
Precursor type: [M+H]+
m/z	relative intensity	assigned
55.0541	28	C4H7+
67.0541	119	C5H7+
69.0698	37	C5H9+
79.0542	74	C6H7+
81.0699	222	C6H9+
83.0855	17	C6H11+
91.0541	38	C7H7+
93.0698	153	C7H9+
95.0855	202	C7H11+
97.0648	324	C6H9O+
105.0698	98	C8H9+
107.0855	149	C8H11+
109.0646	18	C7H9O+
109.1011	321	C8H13+
111.0804	999	C7H11O+
117.0697	8	C9H9+
119.0854	154	C9H11+
121.0648	28	C8H9O+
121.1011	128	C9H13+
123.0803	359	C8H11O+
123.1168	52	C9H15+
125.0957	22	C8H13O+
131.0854	34	C10H11+
133.1011	39	C10H13+
135.0804	96	C9H11O+
135.1168	90	C10H15+
137.096	255	C9H13O+
138.1038	50	C9H14O+
145.1011	111	C11H13+
147.1167	105	C11H15+
149.096	51	C10H13O+
150.1038	13	C10H14O+
151.1114	10	C10H15O+
159.1167	68	C12H15+
161.096	22	C11H13O+
161.1323	32	C12H17+
162.104	18	C11H14O+
163.1117	242	C11H15O+
164.1195	7	C11H16O+
173.1328	20	C13H17+
175.148	11	C13H19+
176.1193	37	C12H16O+
177.1276	18	C12H17O+
177.164	7	C13H21+
201.1635	33	C15H21+
204.1505	26	C14H20O+
219.1741	123	C15H23O+
