Mass spectrum: (+)-Lupanine; LC-ESI-ITFT; MS2; CE: 60%; R=15000; [M+H]+
Name: (+)-Lupanine
Formula: C15H24N2O
Exact mass: 248.1889
SMILES: C1CCN2CC3CC(C2C1)CN4C3CCCC4=O
InChI: InChI=1S/C15H24N2O/c18-15-6-3-5-14-11-8-12(10-17(14)15)13-4-1-2-7-16(13)9-11/h11-14H,1-10H2
Instrument: LTQ Orbitrap XL Thermo Scientific
Instrument type: LC-ESI-ITFT
Ms type: MS2
Ion mode: POSITIVE
Ionization: ESI
Fragmentation mode: CID
Collision energy: 60 % (nominal)
Resolution: 15000
Column name: Kinetex Evo C18 2.6 um 50 x 2.1 mm
Retention time: 0.490 min
Base peak: 249.1957
Precursor m/z: 249.1961
Precursor type: [M+H]+
m/z	relative intensity	assigned
70.0652	1	C4H8N+
77.0388	1	C6H5+
79.0543	2	C6H7+
80.0495	7	C5H6N+
82.0652	1	C5H8N+
84.0808	5	C5H10N+
85.0648	2	C5H9O+
91.0543	4	C7H7+
93.0699	1	C7H9+
94.0652	5	C6H8N+
96.0808	28	C6H10N+
98.0601	2	C5H8NO+
98.0965	32	C6H12N+
100.0758	1	C5H10NO+
105.0699	7	C8H9+
107.0856	1	C8H11+
108.0808	5	C7H10N+
110.0601	1	C6H8NO+
110.0965	3	C7H12N+
112.0757	21	C6H10NO+
112.1122	1	C7H14N+
114.0914	91	C6H12NO+
117.0699	1	C9H9+
119.0856	1	C9H11+
120.0809	1	C8H10N+
121.1012	2	C9H13+
122.0965	12	C8H12N+
124.0757	3	C7H10NO+
124.1121	6	C8H14N+
131.0856	2	C10H11+
133.1013	4	C10H13+
134.0965	49	C9H12N+
135.1044	1	C9H13N+
136.1121	336	C9H14N+
138.0913	4	C8H12NO+
138.1277	4	C9H16N+
143.0857	1	C11H11+
145.1012	2	C11H13+
146.0966	1	C10H12N+
148.0758	3	C9H10NO+
148.1121	23	C10H14N+
150.0914	5	C9H12NO+
150.1278	84	C10H16N+
152.1071	16	C9H14NO+
152.1434	11	C10H18N+
159.1169	2	C12H15+
162.0915	2	C10H12NO+
162.1278	5	C11H16N+
164.107	3	C10H14NO+
166.1227	12	C10H16NO+
169.1012	2	C13H13+
174.1278	9	C12H16N+
176.1071	3	C11H14NO+
176.1435	11	C12H18N+
178.1226	3	C11H16NO+
183.117	1	C14H15+
186.1278	1	C13H16N+
187.1118	1	C13H15O+
188.1434	3	C13H18N+
189.1387	18	C12H17N2+
190.1463	1	C12H18N2+
190.1593	4	C13H20N+
193.1699	1	C12H21N2+
200.1435	3	C14H18N+
204.1384	39	C13H18NO+
206.154	7	C13H20NO+
218.154	8	C14H20NO+
220.1698	1	C14H22NO+
229.1701	2	C15H21N2+
231.1857	129	C15H23N2+
232.1698	1	C15H22NO+
249.1962	999	C15H25N2O+
