Mass spectrum: Tomatidine; LC-ESI-ITFT; MS2; CE: 85%; R=15000; [M+H]+
Name: Tomatidine
Formula: C27H45NO2
Exact mass: 415.3450
SMILES: C[C@H]1[C@H]2[C@H](C[C@H]3[C@@H]4CC[C@H]5C[C@@H](O)CC[C@]5(C)[C@H]4CC[C@]23C)O[C@@]11CC[C@H](C)CN1
InChI: InChI=1S/C27H45NO2/c1-16-7-12-27(28-15-16)17(2)24-23(30-27)14-22-20-6-5-18-13-19(29)8-10-25(18,3)21(20)9-11-26(22,24)4/h16-24,28-29H,5-15H2,1-4H3/t16-,17-,18-,19-,20+,21-,22-,23-,24-,25-,26-,27-/m0/s1
Instrument: LTQ Orbitrap XL Thermo Scientific
Instrument type: LC-ESI-ITFT
Ms type: MS2
Ion mode: POSITIVE
Ionization: ESI
Fragmentation mode: CID
Collision energy: 85 % (nominal)
Resolution: 15000
Column name: Kinetex Evo C18 2.6 um 50 x 2.1 mm
Retention time: 10.063 min
Base peak: 217.0492
Precursor m/z: 416.3523
Precursor type: [M+H]+
m/z	relative intensity	assigned
105.0703	1	C8H9+
119.0855	2	C9H11+
121.1009	2	C9H13+
124.112	5	C8H14N+
126.1276	41	C8H16N+
129.0699	1	C10H9+
131.0853	7	C10H11+
133.1011	12	C10H13+
135.1168	9	C10H15+
143.085	1	C11H11+
145.1011	24	C11H13+
147.1168	36	C11H15+
149.1324	5	C11H17+
151.1115	3	C10H15O+
157.1009	2	C12H13+
159.1168	46	C12H15+
161.1324	116	C12H17+
163.1117	13	C11H15O+
163.1482	1	C12H19+
171.1168	5	C13H15+
173.1324	43	C13H17+
175.148	7	C13H19+
177.128	3	C12H17O+
185.1322	14	C14H17+
187.1482	10	C14H19+
189.1638	3	C14H21+
199.148	24	C15H19+
201.1637	2	C15H21+
213.1637	19	C16H21+
215.1793	12	C16H23+
227.1793	14	C17H23+
255.2107	406	C19H27+
273.2212	347	C19H29O+
398.3418	999	C27H44NO+
