Mass spectrum: Matairesinol; LC-ESI-ITFT; MS2; CE: 125%; R=15000; [M+H]+
Name: Matairesinol
Formula: C20H22O6
Exact mass: 358.1416
SMILES: COC1=CC(C[C@H]2COC(=O)[C@@H]2CC2=CC=C(O)C(OC)=C2)=CC=C1O
InChI: InChI=1S/C20H22O6/c1-24-18-9-12(3-5-16(18)21)7-14-11-26-20(23)15(14)8-13-4-6-17(22)19(10-13)25-2/h3-6,9-10,14-15,21-22H,7-8,11H2,1-2H3/t14-,15+/m0/s1
Instrument: LTQ Orbitrap XL Thermo Scientific
Instrument type: LC-ESI-ITFT
Ms type: MS2
Ion mode: POSITIVE
Ionization: ESI
Fragmentation mode: HCD
Collision energy: 125 % (nominal)
Resolution: 15000
Column name: Kinetex Evo C18 2.6 um 50 x 2.1 mm
Retention time: 9.383 min
Base peak: 381.1302
Precursor m/z: 359.1489
Precursor type: [M+H]+
m/z	relative intensity	assigned
103.0542	48	C8H7+
122.0362	26	C7H6O2+
131.0491	98	C9H7O+
137.0596	999	C8H9O2+
145.0646	15	C10H9O+
149.0602	8	C9H9O2+
163.0753	10	C10H11O2+
