Mass spectrum: Alpinetin; LC-ESI-ITFT; MS2; CE: 95%; R=15000; [M+H]+
Name: Alpinetin
Formula: C16H14O4
Exact mass: 270.0892
SMILES: COC1=C2C(=O)CC(OC2=CC(=C1)O)C3=CC=CC=C3
InChI: InChI=1S/C16H14O4/c1-19-14-7-11(17)8-15-16(14)12(18)9-13(20-15)10-5-3-2-4-6-10/h2-8,13,17H,9H2,1H3
Instrument: LTQ Orbitrap XL Thermo Scientific
Instrument type: LC-ESI-ITFT
Ms type: MS2
Ion mode: POSITIVE
Ionization: ESI
Fragmentation mode: HCD
Collision energy: 95 % (nominal)
Resolution: 15000
Column name: Kinetex Evo C18 2.6 um 50 x 2.1 mm
Retention time: 10.242 min
Base peak: 271.0962
Precursor m/z: 271.0965
Precursor type: [M+H]+
m/z	relative intensity	assigned
79.0542	3	C6H7+
91.0542	14	C7H7+
103.0541	59	C8H7+
107.049	3	C7H7O+
111.0439	4	C6H7O2+
124.0154	6	C6H4O3+
131.049	122	C9H7O+
137.0593	2	C8H9O2+
139.0388	4	C7H7O3+
152.0103	31	C7H4O4+
167.0337	999	C8H7O4+
169.0654	1	C12H9O+
197.0596	1	C13H9O2+
229.0849	1	C14H13O3+
271.0963	3	C16H15O4+
