Mass spectrum: (+)-Sparteine; LC-ESI-ITFT; MS2; CE: 35%; R=15000; [M+H]+
Name: (+)-Sparteine
Formula: C15H26N2
Exact mass: 234.2096
SMILES: C1CCN2C[C@H]3C[C@@H]([C@H]2C1)CN4[C@H]3CCCC4
InChI: InChI=1S/C15H26N2/c1-3-7-16-11-13-9-12(14(16)5-1)10-17-8-4-2-6-15(13)17/h12-15H,1-11H2/t12-,13-,14-,15+/m1/s1
Instrument: LTQ Orbitrap XL Thermo Scientific
Instrument type: LC-ESI-ITFT
Ms type: MS2
Ion mode: POSITIVE
Ionization: ESI
Fragmentation mode: CID
Collision energy: 35 % (nominal)
Resolution: 15000
Column name: Kinetex Evo C18 2.6 um 50 x 2.1 mm
Retention time: 0.553 min
Base peak: 235.2165
Precursor m/z: 235.2169
Precursor type: [M+H]+
m/z	relative intensity	assigned
70.0651	3	C4H8N+
84.0809	3	C5H10N+
96.0809	6	C6H10N+
98.0965	392	C6H12N+
108.0808	1	C7H10N+
110.0965	1	C7H12N+
124.1122	4	C8H14N+
134.0965	59	C9H12N+
136.1122	2	C9H14N+
138.1278	4	C9H16N+
148.1123	1	C10H14N+
150.1278	11	C10H16N+
152.1435	13	C10H18N+
164.1435	4	C11H18N+
190.1591	10	C13H20N+
192.1748	1	C13H22N+
202.1593	1	C14H20N+
204.1749	2	C14H22N+
233.2017	4	C15H25N2+
235.217	999	C15H27N2+
