Mass spectrum: Galantamine; LC-ESI-ITFT; MS2; CE: 60%; R=15000; [M+H]+
Name: Galantamine
Formula: C17H21NO3
Exact mass: 287.1521
SMILES: CN1CCC23C=CC(CC2OC4=C(C=CC(=C34)C1)OC)O
InChI: InChI=1S/C17H21NO3/c1-18-8-7-17-6-5-12(19)9-14(17)21-16-13(20-2)4-3-11(10-18)15(16)17/h3-6,12,14,19H,7-10H2,1-2H3
Instrument: LTQ Orbitrap XL Thermo Scientific
Instrument type: LC-ESI-ITFT
Ms type: MS2
Ion mode: POSITIVE
Ionization: ESI
Fragmentation mode: HCD
Collision energy: 60 % (nominal)
Resolution: 15000
Column name: Kinetex Evo C18 2.6 um 50 x 2.1 mm
Retention time: 0.616 min
Base peak: 249.1956
Precursor m/z: 288.1594
Precursor type: [M+H]+
m/z	relative intensity	assigned
58.0651	7	C3H8N+
72.0807	4	C4H10N+
91.0541	14	C7H7+
93.0698	17	C7H9+
94.0652	8	C6H8N+
109.0648	21	C7H9O+
132.081	5	C9H10N+
133.0887	10	C9H11N+
134.0964	6	C9H12N+
135.0804	36	C9H11O+
137.0593	5	C8H9O2+
143.0853	15	C11H11+
151.0754	12	C9H11O2+
151.0988	5	C9H13NO+
153.0699	10	C12H9+
159.0804	11	C11H11O+
161.0961	37	C11H13O+
167.0851	13	C13H11+
171.0806	13	C12H11O+
175.0753	44	C11H11O2+
175.1118	39	C12H15O+
179.0854	30	C14H11+
181.0644	21	C13H9O+
181.1011	38	C14H13+
182.0725	91	C13H10O+
183.0804	13	C13H11O+
185.096	77	C13H13O+
187.0751	7	C12H11O2+
189.0909	29	C12H13O2+
191.0853	14	C15H11+
197.0961	53	C14H13O+
198.0674	480	C13H10O2+
199.0757	16	C13H11O2+
203.1067	63	C13H15O2+
207.0803	14	C15H11O+
209.096	47	C15H13O+
210.0674	17	C14H10O2+
211.075	5	C14H11O2+
213.0909	999	C14H13O2+
216.0779	6	C13H12O3+
224.0826	4	C15H12O2+
225.091	49	C15H13O2+
227.1065	6	C15H15O2+
229.0857	11	C14H13O3+
231.1014	82	C14H15O3+
239.1059	5	C16H15O2+
255.1258	14	C16H17NO2+
270.1485	6	C17H20NO2+
