Mass spectrum: trans-Zeatin; LC-ESI-ITFT; MS2; CE: 60%; R=15000; [M+H]+
Name: trans-Zeatin
Formula: C10H13N5O
Exact mass: 219.1120
SMILES: C\C(CO)=C/CNC1=C2N=CNC2=NC=N1
InChI: InChI=1S/C10H13N5O/c1-7(4-16)2-3-11-9-8-10(13-5-12-8)15-6-14-9/h2,5-6,16H,3-4H2,1H3,(H2,11,12,13,14,15)/b7-2+
Instrument: LTQ Orbitrap XL Thermo Scientific
Instrument type: LC-ESI-ITFT
Ms type: MS2
Ion mode: POSITIVE
Ionization: ESI
Fragmentation mode: HCD
Collision energy: 60 % (nominal)
Resolution: 15000
Column name: Kinetex Evo C18 2.6 um 50 x 2.1 mm
Retention time: 0.908 min
Base peak: 220.1189
Precursor m/z: 220.1193
Precursor type: [M+H]+
m/z	relative intensity	assigned
67.0542	13	C5H7+
85.0648	1	C5H9O+
119.0352	32	C5H3N4+
135.0665	3	C6H7N4+
136.0617	999	C5H6N5+
146.0458	1	C6H4N5+
148.0617	73	C6H6N5+
158.0717	1	C9H8N3+
159.0664	12	C8H7N4+
173.0819	2	C9H9N4+
175.0978	2	C9H11N4+
185.0821	24	C10H9N4+
187.0855	2	C9H9N5+
202.1086	22	C10H12N5+
220.1193	11	C10H14N5O+
