Mass spectrum: Conessine; LC-ESI-ITFT; MS2; CE: 50%; R=15000; [M+H]+
Name: Conessine
Formula: C24H40N2
Exact mass: 356.3191
SMILES: C[C@H]1[C@H]2CC[C@H]3[C@@H]4CC=C5C[C@H](CC[C@]5(C)[C@H]4CC[C@]23CN1C)N(C)C
InChI: InChI=1S/C24H40N2/c1-16-20-8-9-22-19-7-6-17-14-18(25(3)4)10-12-23(17,2)21(19)11-13-24(20,22)15-26(16)5/h6,16,18-22H,7-15H2,1-5H3/t16-,18-,19+,20+,21-,22-,23-,24-/m0/s1
Instrument: LTQ Orbitrap XL Thermo Scientific
Instrument type: LC-ESI-ITFT
Ms type: MS2
Ion mode: POSITIVE
Ionization: ESI
Fragmentation mode: HCD
Collision energy: 50 % (nominal)
Resolution: 15000
Column name: Kinetex Evo C18 2.6 um 50 x 2.1 mm
Retention time: 5.456 min
Base peak: 179.1665
Precursor m/z: 357.3264
Precursor type: [M+H]+
m/z	relative intensity	assigned
67.0542	29	C5H7+
72.0807	63	C4H10N+
79.0541	23	C6H7+
81.0698	62	C6H9+
83.0855	35	C6H11+
84.0807	223	C5H10N+
91.0541	26	C7H7+
93.0698	58	C7H9+
95.0856	31	C7H11+
105.0697	54	C8H9+
107.0853	51	C8H11+
109.1011	128	C8H13+
119.0852	32	C9H11+
121.1011	60	C9H13+
123.1166	21	C9H15+
131.0856	57	C10H11+
133.101	92	C10H13+
135.1166	179	C10H15+
145.101	83	C11H13+
147.1166	298	C11H15+
149.1324	34	C11H17+
159.1166	403	C12H15+
161.1322	273	C12H17+
173.1325	127	C13H17+
185.1327	19	C14H17+
187.1478	239	C14H19+
199.1476	17	C15H19+
201.1636	21	C15H21+
213.164	18	C16H21+
227.1791	25	C17H23+
269.226	343	C20H29+
312.268	164	C22H34N+
357.3262	999	C24H41N2+
