Mass spectrum: Alpinetin; LC-ESI-ITFT; MS2; CE: 70%; R=15000; [M+H]+
Name: Alpinetin
Formula: C16H14O4
Exact mass: 270.0892
SMILES: COC1=C2C(=O)CC(OC2=CC(=C1)O)C3=CC=CC=C3
InChI: InChI=1S/C16H14O4/c1-19-14-7-11(17)8-15-16(14)12(18)9-13(20-15)10-5-3-2-4-6-10/h2-8,13,17H,9H2,1H3
Instrument: LTQ Orbitrap XL Thermo Scientific
Instrument type: LC-ESI-ITFT
Ms type: MS2
Ion mode: POSITIVE
Ionization: ESI
Fragmentation mode: HCD
Collision energy: 70 % (nominal)
Resolution: 15000
Column name: Kinetex Evo C18 2.6 um 50 x 2.1 mm
Retention time: 10.242 min
Base peak: 271.0962
Precursor m/z: 271.0965
Precursor type: [M+H]+
m/z	relative intensity	assigned
91.0541	6	C7H7+
103.0541	8	C8H7+
105.0333	1	C7H5O+
107.049	1	C7H7O+
131.049	116	C9H7O+
137.0594	2	C8H9O2+
152.01	1	C7H4O4+
165.0548	2	C9H9O3+
167.0337	999	C8H7O4+
169.0646	1	C12H9O+
203.1061	1	C13H15O2+
229.0857	14	C14H13O3+
253.0849	1	C16H13O3+
271.0963	163	C16H15O4+
