Mass spectrum: Conessine; LC-ESI-ITFT; MS2; CE: 80%; R=15000; [M+H]+
Name: Conessine
Formula: C24H40N2
Exact mass: 356.3191
SMILES: C[C@H]1[C@H]2CC[C@H]3[C@@H]4CC=C5C[C@H](CC[C@]5(C)[C@H]4CC[C@]23CN1C)N(C)C
InChI: InChI=1S/C24H40N2/c1-16-20-8-9-22-19-7-6-17-14-18(25(3)4)10-12-23(17,2)21(19)11-13-24(20,22)15-26(16)5/h6,16,18-22H,7-15H2,1-5H3/t16-,18-,19+,20+,21-,22-,23-,24-/m0/s1
Instrument: LTQ Orbitrap XL Thermo Scientific
Instrument type: LC-ESI-ITFT
Ms type: MS2
Ion mode: POSITIVE
Ionization: ESI
Fragmentation mode: CID
Collision energy: 80 % (nominal)
Resolution: 15000
Column name: Kinetex Evo C18 2.6 um 50 x 2.1 mm
Retention time: 5.456 min
Base peak: 179.1665
Precursor m/z: 357.3264
Precursor type: [M+H]+
m/z	relative intensity	assigned
91.0543	1	C7H7+
105.0699	13	C8H9+
107.0856	3	C8H11+
109.1011	3	C8H13+
115.0542	4	C9H7+
117.0699	12	C9H9+
119.0855	20	C9H11+
121.1011	5	C9H13+
123.1167	2	C9H15+
128.062	2	C10H8+
129.0699	8	C10H9+
130.0777	1	C10H10+
131.0855	30	C10H11+
133.1012	22	C10H13+
135.1168	9	C10H15+
142.0777	1	C11H10+
143.0856	8	C11H11+
144.0934	2	C11H12+
145.1012	38	C11H13+
147.1168	60	C11H15+
149.1325	7	C11H17+
155.0857	1	C12H11+
157.1012	10	C12H13+
159.1168	134	C12H15+
161.1325	118	C12H17+
163.1483	1	C12H19+
169.1012	2	C13H13+
171.1168	14	C13H15+
173.1325	65	C13H17+
175.1481	10	C13H19+
183.1169	2	C14H15+
185.1325	19	C14H17+
187.1481	78	C14H19+
189.1636	1	C14H21+
197.1325	2	C15H17+
199.1481	22	C15H19+
200.156	3	C15H20+
201.1637	11	C15H21+
211.1481	5	C16H19+
213.1637	20	C16H21+
215.1796	1	C16H23+
225.1638	3	C17H21+
227.1793	19	C17H23+
239.1791	2	C18H23+
240.1872	3	C18H24+
241.1949	5	C18H25+
253.1947	1	C19H25+
269.2264	181	C20H29+
281.2265	5	C21H29+
283.2419	1	C21H31+
298.2531	4	C21H32N+
299.2609	12	C21H33N+
312.2686	999	C22H34N+
326.284	7	C23H36N+
357.3267	177	C24H41N2+
