Mass spectrum: Citrinin; LC-ESI-ITFT; MS2; CE: 80%; R=15000; [M+H]+
Name: Citrinin
Formula: C13H14O5
Exact mass: 250.0841
SMILES: C[C@H]1OC=C2C(O)=C(C(O)=O)C(=O)C(C)=C2[C@@H]1C
InChI: InChI=1S/C13H14O5/c1-5-7(3)18-4-8-9(5)6(2)11(14)10(12(8)15)13(16)17/h4-5,7,15H,1-3H3,(H,16,17)/t5-,7-/m1/s1
Instrument: LTQ Orbitrap XL Thermo Scientific
Instrument type: LC-ESI-ITFT
Ms type: MS2
Ion mode: POSITIVE
Ionization: ESI
Fragmentation mode: HCD
Collision energy: 80 % (nominal)
Resolution: 15000
Column name: Kinetex Evo C18 2.6 um 50 x 2.1 mm
Retention time: 11.945 min
Base peak: 251.0912
Precursor m/z: 251.0914
Precursor type: [M+H]+
m/z	relative intensity	assigned
91.054	2	C7H7+
95.0854	6	C7H11+
109.1012	2	C8H13+
119.0854	14	C9H11+
123.0803	5	C8H11O+
131.0855	5	C10H11+
135.0802	4	C9H11O+
137.0959	16	C9H13O+
147.0804	37	C10H11O+
149.0958	3	C10H13O+
159.0804	4	C11H11O+
163.0751	8	C10H11O2+
165.0913	4	C10H13O2+
177.0185	2	C9H5O4+
177.0908	6	C11H13O2+
187.0755	7	C12H11O2+
189.0555	2	C11H9O3+
191.0702	67	C11H11O3+
203.0331	3	C11H7O4+
204.0409	2	C11H8O4+
205.0858	76	C12H13O3+
209.0809	10	C11H13O4+
215.07	29	C13H11O3+
218.057	9	C12H10O4+
233.0806	999	C13H13O4+
251.0913	66	C13H15O5+
