Mass spectrum: Galantamine; LC-ESI-ITFT; MS2; CE: 85%; R=15000; [M+H]+
Name: Galantamine
Formula: C17H21NO3
Exact mass: 287.1521
SMILES: CN1CCC23C=CC(CC2OC4=C(C=CC(=C34)C1)OC)O
InChI: InChI=1S/C17H21NO3/c1-18-8-7-17-6-5-12(19)9-14(17)21-16-13(20-2)4-3-11(10-18)15(16)17/h3-6,12,14,19H,7-10H2,1-2H3
Instrument: LTQ Orbitrap XL Thermo Scientific
Instrument type: LC-ESI-ITFT
Ms type: MS2
Ion mode: POSITIVE
Ionization: ESI
Fragmentation mode: HCD
Collision energy: 85 % (nominal)
Resolution: 15000
Column name: Kinetex Evo C18 2.6 um 50 x 2.1 mm
Retention time: 0.616 min
Base peak: 249.1956
Precursor m/z: 288.1594
Precursor type: [M+H]+
m/z	relative intensity	assigned
58.065	11	C3H8N+
93.07	14	C7H9+
109.0647	16	C7H9O+
133.0886	11	C9H11N+
135.0809	15	C9H11O+
143.0862	11	C11H11+
161.0957	17	C11H13O+
175.0754	20	C11H11O2+
175.1119	26	C12H15O+
179.0858	18	C14H11+
181.101	27	C14H13+
182.0724	14	C13H10O+
185.0968	17	C13H13O+
191.0847	11	C15H11+
197.0962	59	C14H13O+
198.0673	121	C13H10O2+
199.0755	14	C13H11O2+
203.1064	66	C13H15O2+
207.0804	11	C15H11O+
209.0958	67	C15H13O+
210.0673	10	C14H10O2+
213.0908	999	C14H13O2+
225.091	102	C15H13O2+
231.1015	166	C14H15O3+
270.1487	33	C17H20NO2+
288.1593	16	C17H22NO3+
